
     RDKit          3D

  6  6  0  0  0  0  0  0  0  0999 V2000
   -0.6672   -0.4388   -0.8764 N   0  0  0  0  0  0  0  0  0  0  0  0
    0.6613   -0.3485   -0.9173 N   0  0  0  0  0  0  0  0  0  0  0  0
    1.3744   -0.1508    0.2209 C   0  0  0  0  0  0  0  0  0  0  0  0
    0.7121   -0.0434    1.4010 N   0  0  0  0  0  0  0  0  0  0  0  0
   -0.6164   -0.1337    1.4420 N   0  0  0  0  0  0  0  0  0  0  0  0
   -1.3293   -0.3346    0.3043 C   0  0  0  0  0  0  0  0  0  0  0  0
  1  2  4  0
  2  3  4  0
  3  4  4  0
  4  5  4  0
  5  6  4  0
  6  1  4  0
M  END
$$$$

     RDKit          3D

  6  6  0  0  0  0  0  0  0  0999 V2000
   -0.4748   -1.2583    0.0064 N   0  0  0  0  0  0  0  0  0  0  0  0
    0.8324   -1.0525   -0.1468 N   0  0  0  0  0  0  0  0  0  0  0  0
    1.3301    0.2094   -0.2011 C   0  0  0  0  0  0  0  0  0  0  0  0
    0.4748    1.2583   -0.0948 N   0  0  0  0  0  0  0  0  0  0  0  0
   -0.8324    1.0525    0.0585 N   0  0  0  0  0  0  0  0  0  0  0  0
   -1.3301   -0.2094    0.1128 C   0  0  0  0  0  0  0  0  0  0  0  0
  1  2  4  0
  2  3  4  0
  3  4  4  0
  4  5  4  0
  5  6  4  0
  6  1  4  0
M  END
$$$$

     RDKit          3D

  6  6  0  0  0  0  0  0  0  0999 V2000
    0.5284    0.5263    1.1234 N   0  0  0  0  0  0  0  0  0  0  0  0
   -0.7758    0.2600    1.0719 N   0  0  0  0  0  0  0  0  0  0  0  0
   -1.3260   -0.2787   -0.0463 C   0  0  0  0  0  0  0  0  0  0  0  0
   -0.5266   -0.5387   -1.1125 N   0  0  0  0  0  0  0  0  0  0  0  0
    0.7777   -0.2724   -1.0610 N   0  0  0  0  0  0  0  0  0  0  0  0
    1.3279    0.2628    0.0585 C   0  0  0  0  0  0  0  0  0  0  0  0
  1  2  4  0
  2  3  4  0
  3  4  4  0
  4  5  4  0
  5  6  4  0
  6  1  4  0
M  END
$$$$

     RDKit          3D

  6  6  0  0  0  0  0  0  0  0999 V2000
   -0.7365   -0.4399    1.2712 N   0  0  0  0  0  0  0  0  0  0  0  0
    0.5753   -0.6711    1.2536 N   0  0  0  0  0  0  0  0  0  0  0  0
    1.2862   -0.5239    0.1063 C   0  0  0  0  0  0  0  0  0  0  0  0
    0.6393   -0.1356   -1.0225 N   0  0  0  0  0  0  0  0  0  0  0  0
   -0.6726    0.0956   -1.0050 N   0  0  0  0  0  0  0  0  0  0  0  0
   -1.3827   -0.0513    0.1425 C   0  0  0  0  0  0  0  0  0  0  0  0
  1  2  4  0
  2  3  4  0
  3  4  4  0
  4  5  4  0
  5  6  4  0
  6  1  4  0
M  END
$$$$

     RDKit          3D

  3  2  0  0  0  0  0  0  0  0999 V2000
   -0.1825   -1.4284    1.2254 F   0  0  0  0  0  0  0  0  0  0  0  0
    0.3976   -0.4440    0.4899 C   0  0  0  0  0  0  0  0  0  0  0  0
   -0.3707    0.3975   -0.2231 C   0  0  0  0  0  0  0  0  0  0  0  0
  1  2  1  0
  2  3  2  0
M  END
$$$$

     RDKit          3D

  3  2  0  0  0  0  0  0  0  0999 V2000
   -0.1260    0.7328    1.8208 F   0  0  0  0  0  0  0  0  0  0  0  0
   -0.4904    0.2206    0.6160 C   0  0  0  0  0  0  0  0  0  0  0  0
    0.4536   -0.1968   -0.2449 C   0  0  0  0  0  0  0  0  0  0  0  0
  1  2  1  0
  2  3  2  0
M  END
$$$$

     RDKit          3D

  3  2  0  0  0  0  0  0  0  0999 V2000
    0.0454   -1.5944    0.9460 F   0  0  0  0  0  0  0  0  0  0  0  0
   -0.4345   -0.5185    0.2687 C   0  0  0  0  0  0  0  0  0  0  0  0
    0.4035    0.4646   -0.1029 C   0  0  0  0  0  0  0  0  0  0  0  0
  1  2  1  0
  2  3  2  0
M  END
$$$$

     RDKit          3D

  3  2  0  0  0  0  0  0  0  0999 V2000
   -0.0914   -1.4913    1.0376 F   0  0  0  0  0  0  0  0  0  0  0  0
   -0.4805   -0.4353    0.2760 C   0  0  0  0  0  0  0  0  0  0  0  0
    0.4448    0.3884   -0.2457 C   0  0  0  0  0  0  0  0  0  0  0  0
  1  2  1  0
  2  3  2  0
M  END
$$$$

     RDKit          3D

  3  2  0  0  0  0  0  0  0  0999 V2000
   -0.0488   -1.2872    1.2776 F   0  0  0  0  0  0  0  0  0  0  0  0
    0.4396   -0.4007    0.3710 C   0  0  0  0  0  0  0  0  0  0  0  0
   -0.4083    0.3583   -0.3443 C   0  0  0  0  0  0  0  0  0  0  0  0
  1  2  1  0
  2  3  2  0
M  END
$$$$

     RDKit          3D

  3  2  0  0  0  0  0  0  0  0999 V2000
   -0.1968    1.4234   -1.2192 F   0  0  0  0  0  0  0  0  0  0  0  0
    0.3893    0.4983   -0.4145 C   0  0  0  0  0  0  0  0  0  0  0  0
   -0.3632   -0.4475    0.1735 C   0  0  0  0  0  0  0  0  0  0  0  0
  1  2  1  0
  2  3  2  0
M  END
$$$$

     RDKit          3D

  3  2  0  0  0  0  0  0  0  0999 V2000
    0.0579   -1.6600   -0.8028 F   0  0  0  0  0  0  0  0  0  0  0  0
    0.4683   -0.4999   -0.2264 C   0  0  0  0  0  0  0  0  0  0  0  0
   -0.4339    0.4466    0.0849 C   0  0  0  0  0  0  0  0  0  0  0  0
  1  2  1  0
  2  3  2  0
M  END
$$$$

     RDKit          3D

  3  2  0  0  0  0  0  0  0  0999 V2000
    1.4224   -1.6036   -2.4716 F   0  0  0  0  0  0  0  0  0  0  0  0
    0.7453   -0.9826   -1.4725 C   0  0  0  0  0  0  0  0  0  0  0  0
   -0.5587   -0.7207   -1.6646 C   0  0  0  0  0  0  0  0  0  0  0  0
  1  2  1  0
  2  3  2  0
M  END
$$$$

     RDKit          3D

  3  2  0  0  0  0  0  0  0  0999 V2000
    1.1259   -2.4390   -1.9787 F   0  0  0  0  0  0  0  0  0  0  0  0
    0.5766   -1.4437   -1.2371 C   0  0  0  0  0  0  0  0  0  0  0  0
   -0.7476   -1.2399   -1.3404 C   0  0  0  0  0  0  0  0  0  0  0  0
  1  2  1  0
  2  3  2  0
M  END
$$$$

     RDKit          3D

  5  4  0  0  0  0  0  0  0  0999 V2000
   -3.8398    0.1926   -0.8083 C   0  0  0  0  0  0  0  0  0  0  0  0
   -2.3185    0.2415   -0.9153 C   0  0  0  0  0  0  0  0  0  0  0  0
   -1.6565   -0.4707    0.2709 C   0  0  0  0  0  0  0  0  0  0  0  0
   -0.1542   -0.3950    0.1792 C   0  0  0  0  0  0  0  0  0  0  0  0
    0.5056   -1.1326   -0.7285 C   0  0  0  0  0  0  0  0  0  0  0  0
  1  2  1  0
  2  3  1  0
  3  4  1  0
  4  5  2  0
M  END
$$$$

     RDKit          3D

  5  4  0  0  0  0  0  0  0  0999 V2000
   -3.8398    0.1926   -0.8083 C   0  0  0  0  0  0  0  0  0  0  0  0
   -2.3185    0.2415   -0.9153 C   0  0  0  0  0  0  0  0  0  0  0  0
   -1.6565   -0.4707    0.2709 C   0  0  0  0  0  0  0  0  0  0  0  0
   -0.1542   -0.3950    0.1792 C   0  0  0  0  0  0  0  0  0  0  0  0
    0.5056   -1.1326   -0.7285 C   0  0  0  0  0  0  0  0  0  0  0  0
  1  2  1  0
  2  3  1  0
  3  4  1  0
  4  5  2  0
M  END
$$$$

     RDKit          3D

  5  4  0  0  0  0  0  0  0  0999 V2000
   -3.8507    0.1961   -0.6488 C   0  0  0  0  0  0  0  0  0  0  0  0
   -2.3676   -0.1561   -0.7164 C   0  0  0  0  0  0  0  0  0  0  0  0
   -1.6393    0.2644    0.5663 C   0  0  0  0  0  0  0  0  0  0  0  0
   -0.1691   -0.0564    0.4850 C   0  0  0  0  0  0  0  0  0  0  0  0
    0.2511   -1.3287    0.5744 C   0  0  0  0  0  0  0  0  0  0  0  0
  1  2  1  0
  2  3  1  0
  3  4  1  0
  4  5  2  0
M  END
$$$$

     RDKit          3D

  5  4  0  0  0  0  0  0  0  0999 V2000
   -3.8507    0.1961   -0.6488 C   0  0  0  0  0  0  0  0  0  0  0  0
   -2.3676   -0.1561   -0.7164 C   0  0  0  0  0  0  0  0  0  0  0  0
   -1.6393    0.2644    0.5663 C   0  0  0  0  0  0  0  0  0  0  0  0
   -0.1691   -0.0564    0.4850 C   0  0  0  0  0  0  0  0  0  0  0  0
    0.2511   -1.3287    0.5744 C   0  0  0  0  0  0  0  0  0  0  0  0
  1  2  1  0
  2  3  1  0
  3  4  1  0
  4  5  2  0
M  END
$$$$

     RDKit          3D

  5  4  0  0  0  0  0  0  0  0999 V2000
   -3.4469   -1.6411   -0.9192 C   0  0  0  0  0  0  0  0  0  0  0  0
   -2.0062   -1.4189   -0.4683 C   0  0  0  0  0  0  0  0  0  0  0  0
   -1.5087   -0.0248   -0.8701 C   0  0  0  0  0  0  0  0  0  0  0  0
   -0.0962    0.2040   -0.3974 C   0  0  0  0  0  0  0  0  0  0  0  0
    0.9284   -0.4183   -1.0027 C   0  0  0  0  0  0  0  0  0  0  0  0
  1  2  1  0
  2  3  1  0
  3  4  1  0
  4  5  2  0
M  END
$$$$

     RDKit          3D

  5  4  0  0  0  0  0  0  0  0999 V2000
   -3.4469   -1.6411   -0.9192 C   0  0  0  0  0  0  0  0  0  0  0  0
   -2.0062   -1.4189   -0.4683 C   0  0  0  0  0  0  0  0  0  0  0  0
   -1.5087   -0.0248   -0.8701 C   0  0  0  0  0  0  0  0  0  0  0  0
   -0.0962    0.2040   -0.3974 C   0  0  0  0  0  0  0  0  0  0  0  0
    0.9284   -0.4183   -1.0027 C   0  0  0  0  0  0  0  0  0  0  0  0
  1  2  1  0
  2  3  1  0
  3  4  1  0
  4  5  2  0
M  END
$$$$

     RDKit          3D

  5  4  0  0  0  0  0  0  0  0999 V2000
   -3.0957   -1.9482   -1.4065 C   0  0  0  0  0  0  0  0  0  0  0  0
   -1.7219   -1.3039   -1.2458 C   0  0  0  0  0  0  0  0  0  0  0  0
   -1.4598   -0.9147    0.2145 C   0  0  0  0  0  0  0  0  0  0  0  0
   -0.1139   -0.2539    0.3659 C   0  0  0  0  0  0  0  0  0  0  0  0
    1.0103   -0.9836    0.2840 C   0  0  0  0  0  0  0  0  0  0  0  0
  1  2  1  0
  2  3  1  0
  3  4  1  0
  4  5  2  0
M  END
$$$$

     RDKit          3D

  5  4  0  0  0  0  0  0  0  0999 V2000
   -3.0957   -1.9482   -1.4065 C   0  0  0  0  0  0  0  0  0  0  0  0
   -1.7219   -1.3039   -1.2458 C   0  0  0  0  0  0  0  0  0  0  0  0
   -1.4598   -0.9147    0.2145 C   0  0  0  0  0  0  0  0  0  0  0  0
   -0.1139   -0.2539    0.3659 C   0  0  0  0  0  0  0  0  0  0  0  0
    1.0103   -0.9836    0.2840 C   0  0  0  0  0  0  0  0  0  0  0  0
  1  2  1  0
  2  3  1  0
  3  4  1  0
  4  5  2  0
M  END
$$$$

     RDKit          3D

  5  4  0  0  0  0  0  0  0  0999 V2000
   -3.1290    0.1539    2.3543 C   0  0  0  0  0  0  0  0  0  0  0  0
   -1.7155   -0.0306    1.8102 C   0  0  0  0  0  0  0  0  0  0  0  0
   -1.7119   -0.0594    0.2766 C   0  0  0  0  0  0  0  0  0  0  0  0
   -0.3119   -0.2125   -0.2601 C   0  0  0  0  0  0  0  0  0  0  0  0
    0.3248   -1.3908   -0.1610 C   0  0  0  0  0  0  0  0  0  0  0  0
  1  2  1  0
  2  3  1  0
  3  4  1  0
  4  5  2  0
M  END
$$$$

     RDKit          3D

  5  4  0  0  0  0  0  0  0  0999 V2000
   -3.1290    0.1539    2.3543 C   0  0  0  0  0  0  0  0  0  0  0  0
   -1.7155   -0.0306    1.8102 C   0  0  0  0  0  0  0  0  0  0  0  0
   -1.7119   -0.0594    0.2766 C   0  0  0  0  0  0  0  0  0  0  0  0
   -0.3119   -0.2125   -0.2601 C   0  0  0  0  0  0  0  0  0  0  0  0
    0.3248   -1.3908   -0.1610 C   0  0  0  0  0  0  0  0  0  0  0  0
  1  2  1  0
  2  3  1  0
  3  4  1  0
  4  5  2  0
M  END
$$$$

     RDKit          3D

  5  4  0  0  0  0  0  0  0  0999 V2000
   -1.5936   -1.3135    2.0878 C   0  0  0  0  0  0  0  0  0  0  0  0
   -0.9062   -0.2112    1.2879 C   0  0  0  0  0  0  0  0  0  0  0  0
   -0.6080   -0.6708   -0.1449 C   0  0  0  0  0  0  0  0  0  0  0  0
    0.0718    0.4224   -0.9372 C   0  0  0  0  0  0  0  0  0  0  0  0
    1.3768    0.7108   -0.8089 C   0  0  0  0  0  0  0  0  0  0  0  0
  1  2  1  0
  2  3  1  0
  3  4  1  0
  4  5  2  0
M  END
$$$$

     RDKit          3D

  5  4  0  0  0  0  0  0  0  0999 V2000
   -1.5936   -1.3135    2.0878 C   0  0  0  0  0  0  0  0  0  0  0  0
   -0.9062   -0.2112    1.2879 C   0  0  0  0  0  0  0  0  0  0  0  0
   -0.6080   -0.6708   -0.1449 C   0  0  0  0  0  0  0  0  0  0  0  0
    0.0718    0.4224   -0.9372 C   0  0  0  0  0  0  0  0  0  0  0  0
    1.3768    0.7108   -0.8089 C   0  0  0  0  0  0  0  0  0  0  0  0
  1  2  1  0
  2  3  1  0
  3  4  1  0
  4  5  2  0
M  END
$$$$

     RDKit          3D

  5  4  0  0  0  0  0  0  0  0999 V2000
   -1.8618   -2.1228    0.7747 C   0  0  0  0  0  0  0  0  0  0  0  0
   -1.1559   -0.7704    0.7526 C   0  0  0  0  0  0  0  0  0  0  0  0
   -0.4420   -0.5405   -0.5855 C   0  0  0  0  0  0  0  0  0  0  0  0
    0.2560    0.8002   -0.6072 C   0  0  0  0  0  0  0  0  0  0  0  0
    1.4313    1.0193    0.0039 C   0  0  0  0  0  0  0  0  0  0  0  0
  1  2  1  0
  2  3  1  0
  3  4  1  0
  4  5  2  0
M  END
$$$$

     RDKit          3D

  5  4  0  0  0  0  0  0  0  0999 V2000
   -1.8618   -2.1228    0.7747 C   0  0  0  0  0  0  0  0  0  0  0  0
   -1.1559   -0.7704    0.7526 C   0  0  0  0  0  0  0  0  0  0  0  0
   -0.4420   -0.5405   -0.5855 C   0  0  0  0  0  0  0  0  0  0  0  0
    0.2560    0.8002   -0.6072 C   0  0  0  0  0  0  0  0  0  0  0  0
    1.4313    1.0193    0.0039 C   0  0  0  0  0  0  0  0  0  0  0  0
  1  2  1  0
  2  3  1  0
  3  4  1  0
  4  5  2  0
M  END
$$$$

     RDKit          3D

  5  4  0  0  0  0  0  0  0  0999 V2000
   -2.6138   -1.1515    0.6786 C   0  0  0  0  0  0  0  0  0  0  0  0
   -1.2921   -0.4003    0.8067 C   0  0  0  0  0  0  0  0  0  0  0  0
   -0.7603    0.0227   -0.5685 C   0  0  0  0  0  0  0  0  0  0  0  0
    0.5483    0.7686   -0.4405 C   0  0  0  0  0  0  0  0  0  0  0  0
    1.7213    0.1503   -0.2300 C   0  0  0  0  0  0  0  0  0  0  0  0
  1  2  1  0
  2  3  1  0
  3  4  1  0
  4  5  2  0
M  END
$$$$

     RDKit          3D

  5  4  0  0  0  0  0  0  0  0999 V2000
   -2.6138   -1.1515    0.6786 C   0  0  0  0  0  0  0  0  0  0  0  0
   -1.2921   -0.4003    0.8067 C   0  0  0  0  0  0  0  0  0  0  0  0
   -0.7603    0.0227   -0.5685 C   0  0  0  0  0  0  0  0  0  0  0  0
    0.5483    0.7686   -0.4405 C   0  0  0  0  0  0  0  0  0  0  0  0
    1.7213    0.1503   -0.2300 C   0  0  0  0  0  0  0  0  0  0  0  0
  1  2  1  0
  2  3  1  0
  3  4  1  0
  4  5  2  0
M  END
$$$$

     RDKit          3D

  5  4  0  0  0  0  0  0  0  0999 V2000
   -1.7989   -1.4796    1.7893 C   0  0  0  0  0  0  0  0  0  0  0  0
   -0.9961   -1.1122    0.5450 C   0  0  0  0  0  0  0  0  0  0  0  0
   -0.6373    0.3792    0.5383 C   0  0  0  0  0  0  0  0  0  0  0  0
    0.1563    0.7429   -0.6958 C   0  0  0  0  0  0  0  0  0  0  0  0
    1.4659    0.4760   -0.8242 C   0  0  0  0  0  0  0  0  0  0  0  0
  1  2  1  0
  2  3  1  0
  3  4  1  0
  4  5  2  0
M  END
$$$$

     RDKit          3D

  5  4  0  0  0  0  0  0  0  0999 V2000
   -1.7989   -1.4796    1.7893 C   0  0  0  0  0  0  0  0  0  0  0  0
   -0.9961   -1.1122    0.5450 C   0  0  0  0  0  0  0  0  0  0  0  0
   -0.6373    0.3792    0.5383 C   0  0  0  0  0  0  0  0  0  0  0  0
    0.1563    0.7429   -0.6958 C   0  0  0  0  0  0  0  0  0  0  0  0
    1.4659    0.4760   -0.8242 C   0  0  0  0  0  0  0  0  0  0  0  0
  1  2  1  0
  2  3  1  0
  3  4  1  0
  4  5  2  0
M  END
$$$$

     RDKit          3D

  8  8  0  0  0  0  0  0  0  0999 V2000
    1.1700    1.2834   -2.2581 F   0  0  0  0  0  0  0  0  0  0  0  0
    0.6050    0.6352   -1.2077 C   0  0  0  0  0  0  0  0  0  0  0  0
   -0.7839    0.4804   -1.1735 C   0  0  0  0  0  0  0  0  0  0  0  0
   -1.4061   -0.1573   -0.0879 C   0  0  0  0  0  0  0  0  0  0  0  0
   -0.6130   -0.6383    0.9697 C   0  0  0  0  0  0  0  0  0  0  0  0
   -1.1780   -1.2865    2.0201 F   0  0  0  0  0  0  0  0  0  0  0  0
    0.7759   -0.4835    0.9355 C   0  0  0  0  0  0  0  0  0  0  0  0
    1.3981    0.1542   -0.1501 C   0  0  0  0  0  0  0  0  0  0  0  0
  1  2  1  0
  2  3  4  0
  3  4  4  0
  4  5  4  0
  5  6  1  0
  5  7  4  0
  7  8  4  0
  8  2  4  0
M  END
$$$$

     RDKit          3D

  8  8  0  0  0  0  0  0  0  0999 V2000
   -1.4321   -0.9891    2.1756 F   0  0  0  0  0  0  0  0  0  0  0  0
   -0.7360   -0.5005    1.1176 C   0  0  0  0  0  0  0  0  0  0  0  0
    0.6594   -0.4536    1.1868 C   0  0  0  0  0  0  0  0  0  0  0  0
    1.4138    0.0237    0.1026 C   0  0  0  0  0  0  0  0  0  0  0  0
    0.7468    0.4555   -1.0581 C   0  0  0  0  0  0  0  0  0  0  0  0
    1.4452    0.9009   -2.1335 F   0  0  0  0  0  0  0  0  0  0  0  0
   -0.6485    0.4070   -1.1280 C   0  0  0  0  0  0  0  0  0  0  0  0
   -1.4029   -0.0702   -0.0437 C   0  0  0  0  0  0  0  0  0  0  0  0
  1  2  1  0
  2  3  4  0
  3  4  4  0
  4  5  4  0
  5  6  1  0
  5  7  4  0
  7  8  4  0
  8  2  4  0
M  END
$$$$

     RDKit          3D

  8  8  0  0  0  0  0  0  0  0999 V2000
    1.4286   -0.5359   -2.1876 F   0  0  0  0  0  0  0  0  0  0  0  0
    0.7338   -0.2783   -1.0502 C   0  0  0  0  0  0  0  0  0  0  0  0
   -0.6633   -0.2663   -1.0965 C   0  0  0  0  0  0  0  0  0  0  0  0
   -1.4141    0.0312    0.0520 C   0  0  0  0  0  0  0  0  0  0  0  0
   -0.7433    0.3026    1.2581 C   0  0  0  0  0  0  0  0  0  0  0  0
   -1.4386    0.5417    2.3991 F   0  0  0  0  0  0  0  0  0  0  0  0
    0.6538    0.2907    1.3046 C   0  0  0  0  0  0  0  0  0  0  0  0
    1.4055    0.0040    0.1533 C   0  0  0  0  0  0  0  0  0  0  0  0
  1  2  1  0
  2  3  4  0
  3  4  4  0
  4  5  4  0
  5  6  1  0
  5  7  4  0
  7  8  4  0
  8  2  4  0
M  END
$$$$

     RDKit          3D

  8  8  0  0  0  0  0  0  0  0999 V2000
   -1.3390   -0.9897   -2.2524 F   0  0  0  0  0  0  0  0  0  0  0  0
   -0.6879   -0.4882   -1.1721 C   0  0  0  0  0  0  0  0  0  0  0  0
    0.7034   -0.6048   -1.1036 C   0  0  0  0  0  0  0  0  0  0  0  0
    1.4069   -0.1297    0.0153 C   0  0  0  0  0  0  0  0  0  0  0  0
    0.6924    0.4634    1.0721 C   0  0  0  0  0  0  0  0  0  0  0  0
    1.3370    0.9068    2.1814 F   0  0  0  0  0  0  0  0  0  0  0  0
   -0.6991    0.5784    1.0043 C   0  0  0  0  0  0  0  0  0  0  0  0
   -1.4009    0.1133   -0.1194 C   0  0  0  0  0  0  0  0  0  0  0  0
  1  2  1  0
  2  3  4  0
  3  4  4  0
  4  5  4  0
  5  6  1  0
  5  7  4  0
  7  8  4  0
  8  2  4  0
M  END
$$$$

     RDKit          3D

  8  8  0  0  0  0  0  0  0  0999 V2000
    1.3287    0.1016    2.3922 F   0  0  0  0  0  0  0  0  0  0  0  0
    0.6843    0.0407    1.1990 C   0  0  0  0  0  0  0  0  0  0  0  0
   -0.7129   -0.0002    1.1834 C   0  0  0  0  0  0  0  0  0  0  0  0
   -1.4142   -0.0273   -0.0332 C   0  0  0  0  0  0  0  0  0  0  0  0
   -0.6921   -0.0086   -1.2403 C   0  0  0  0  0  0  0  0  0  0  0  0
   -1.3381   -0.0040   -2.4342 F   0  0  0  0  0  0  0  0  0  0  0  0
    0.7051    0.0341   -1.2247 C   0  0  0  0  0  0  0  0  0  0  0  0
    1.4061    0.0500   -0.0082 C   0  0  0  0  0  0  0  0  0  0  0  0
  1  2  1  0
  2  3  4  0
  3  4  4  0
  4  5  4  0
  5  6  1  0
  5  7  4  0
  7  8  4  0
  8  2  4  0
M  END
$$$$

     RDKit          3D

  8  8  0  0  0  0  0  0  0  0999 V2000
   -1.5557   -2.2553   -0.3674 F   0  0  0  0  0  0  0  0  0  0  0  0
   -0.7984   -1.1383   -0.2203 C   0  0  0  0  0  0  0  0  0  0  0  0
    0.5927   -1.2642   -0.1640 C   0  0  0  0  0  0  0  0  0  0  0  0
    1.4083   -0.1290   -0.0314 C   0  0  0  0  0  0  0  0  0  0  0  0
    0.8094    1.1423    0.0262 C   0  0  0  0  0  0  0  0  0  0  0  0
    1.5700    2.2636    0.1081 F   0  0  0  0  0  0  0  0  0  0  0  0
   -0.5815    1.2684   -0.0318 C   0  0  0  0  0  0  0  0  0  0  0  0
   -1.3984    0.1323   -0.1533 C   0  0  0  0  0  0  0  0  0  0  0  0
  1  2  1  0
  2  3  4  0
  3  4  4  0
  4  5  4  0
  5  6  1  0
  5  7  4  0
  7  8  4  0
  8  2  4  0
M  END
$$$$

     RDKit          3D

  8  8  0  0  0  0  0  0  0  0999 V2000
   -1.4391   -2.3321   -0.4674 F   0  0  0  0  0  0  0  0  0  0  0  0
   -0.7398   -1.1734   -0.3621 C   0  0  0  0  0  0  0  0  0  0  0  0
    0.6573   -1.2217   -0.3588 C   0  0  0  0  0  0  0  0  0  0  0  0
    1.4134   -0.0477   -0.2081 C   0  0  0  0  0  0  0  0  0  0  0  0
    0.7462    1.1812   -0.0536 C   0  0  0  0  0  0  0  0  0  0  0  0
    1.4451    2.3383    0.0702 F   0  0  0  0  0  0  0  0  0  0  0  0
   -0.6508    1.2294   -0.0570 C   0  0  0  0  0  0  0  0  0  0  0  0
   -1.4062    0.0569   -0.2188 C   0  0  0  0  0  0  0  0  0  0  0  0
  1  2  1  0
  2  3  4  0
  3  4  4  0
  4  5  4  0
  5  6  1  0
  5  7  4  0
  7  8  4  0
  8  2  4  0
M  END
$$$$

     RDKit          3D

  8  8  0  0  0  0  0  0  0  0999 V2000
   -1.1336   -1.4905    1.9839 F   0  0  0  0  0  0  0  0  0  0  0  0
   -0.5857   -0.7640    0.9767 C   0  0  0  0  0  0  0  0  0  0  0  0
    0.8064   -0.6879    0.8741 C   0  0  0  0  0  0  0  0  0  0  0  0
    1.4083    0.0836   -0.1336 C   0  0  0  0  0  0  0  0  0  0  0  0
    0.5913    0.7846   -1.0392 C   0  0  0  0  0  0  0  0  0  0  0  0
    1.1391    1.5632   -2.0069 F   0  0  0  0  0  0  0  0  0  0  0  0
   -0.8007    0.7098   -0.9354 C   0  0  0  0  0  0  0  0  0  0  0  0
   -1.4020   -0.0703    0.0652 C   0  0  0  0  0  0  0  0  0  0  0  0
  1  2  1  0
  2  3  4  0
  3  4  4  0
  4  5  4  0
  5  6  1  0
  5  7  4  0
  7  8  4  0
  8  2  4  0
M  END
$$$$

     RDKit          3D

  8  8  0  0  0  0  0  0  0  0999 V2000
   -1.3802    1.5949    1.7037 F   0  0  0  0  0  0  0  0  0  0  0  0
   -0.7094    0.8025    0.8291 C   0  0  0  0  0  0  0  0  0  0  0  0
    0.6870    0.8588    0.7959 C   0  0  0  0  0  0  0  0  0  0  0  0
    1.4129    0.0674   -0.1087 C   0  0  0  0  0  0  0  0  0  0  0  0
    0.7167   -0.7721   -0.9968 C   0  0  0  0  0  0  0  0  0  0  0  0
    1.3847   -1.5158   -1.9151 F   0  0  0  0  0  0  0  0  0  0  0  0
   -0.6798   -0.8272   -0.9648 C   0  0  0  0  0  0  0  0  0  0  0  0
   -1.4058   -0.0441   -0.0525 C   0  0  0  0  0  0  0  0  0  0  0  0
  1  2  1  0
  2  3  4  0
  3  4  4  0
  4  5  4  0
  5  6  1  0
  5  7  4  0
  7  8  4  0
  8  2  4  0
M  END
$$$$

     RDKit          3D

  8  8  0  0  0  0  0  0  0  0999 V2000
   -1.3414    2.0554    1.3765 F   0  0  0  0  0  0  0  0  0  0  0  0
   -0.6899    1.0292    0.7722 C   0  0  0  0  0  0  0  0  0  0  0  0
    0.7079    1.0287    0.7551 C   0  0  0  0  0  0  0  0  0  0  0  0
    1.4145   -0.0003    0.1119 C   0  0  0  0  0  0  0  0  0  0  0  0
    0.6979   -1.0224   -0.5364 C   0  0  0  0  0  0  0  0  0  0  0  0
    1.3485   -2.0036   -1.2121 F   0  0  0  0  0  0  0  0  0  0  0  0
   -0.6999   -1.0210   -0.5208 C   0  0  0  0  0  0  0  0  0  0  0  0
   -1.4063   -0.0039    0.1414 C   0  0  0  0  0  0  0  0  0  0  0  0
  1  2  1  0
  2  3  4  0
  3  4  4  0
  4  5  4  0
  5  6  1  0
  5  7  4  0
  7  8  4  0
  8  2  4  0
M  END
$$$$

     RDKit          3D

  8  8  0  0  0  0  0  0  0  0999 V2000
   -1.3694   -1.4210    1.9805 F   0  0  0  0  0  0  0  0  0  0  0  0
   -0.7038   -0.7338    1.0175 C   0  0  0  0  0  0  0  0  0  0  0  0
    0.6937   -0.7135    1.0410 C   0  0  0  0  0  0  0  0  0  0  0  0
    1.4141    0.0260    0.0893 C   0  0  0  0  0  0  0  0  0  0  0  0
    0.7121    0.7394   -0.8991 C   0  0  0  0  0  0  0  0  0  0  0  0
    1.3776    1.4265   -1.8622 F   0  0  0  0  0  0  0  0  0  0  0  0
   -0.6855    0.7191   -0.9227 C   0  0  0  0  0  0  0  0  0  0  0  0
   -1.4058   -0.0204    0.0292 C   0  0  0  0  0  0  0  0  0  0  0  0
  1  2  1  0
  2  3  4  0
  3  4  4  0
  4  5  4  0
  5  6  1  0
  5  7  4  0
  7  8  4  0
  8  2  4  0
M  END
$$$$

     RDKit          3D

  8  8  0  0  0  0  0  0  0  0999 V2000
    1.4734   -1.4463    1.7576 F   0  0  0  0  0  0  0  0  0  0  0  0
    0.7564   -0.7042    0.8756 C   0  0  0  0  0  0  0  0  0  0  0  0
   -0.6396   -0.7308    0.9432 C   0  0  0  0  0  0  0  0  0  0  0  0
   -1.4127    0.0484    0.0674 C   0  0  0  0  0  0  0  0  0  0  0  0
   -0.7646    0.8759   -0.8673 C   0  0  0  0  0  0  0  0  0  0  0  0
   -1.4800    1.6811   -1.6934 F   0  0  0  0  0  0  0  0  0  0  0  0
    0.6315    0.9038   -0.9338 C   0  0  0  0  0  0  0  0  0  0  0  0
    1.4041    0.1078   -0.0728 C   0  0  0  0  0  0  0  0  0  0  0  0
  1  2  1  0
  2  3  4  0
  3  4  4  0
  4  5  4  0
  5  6  1  0
  5  7  4  0
  7  8  4  0
  8  2  4  0
M  END
$$$$
