
     RDKit          3D

  6  6  0  0  0  0  0  0  0  0999 V2000
   -0.7239   -1.1220    0.1799 N   0  0  0  0  0  0  0  0  0  0  0  0
    0.6058   -1.1911    0.1430 N   0  0  0  0  0  0  0  0  0  0  0  0
    1.3592   -0.0622    0.0847 C   0  0  0  0  0  0  0  0  0  0  0  0
    0.7248    1.1388    0.0649 N   0  0  0  0  0  0  0  0  0  0  0  0
   -0.6049    1.2080    0.1019 N   0  0  0  0  0  0  0  0  0  0  0  0
   -1.3584    0.0791    0.1602 C   0  0  0  0  0  0  0  0  0  0  0  0
  1  2  4  0
  2  3  4  0
  3  4  4  0
  4  5  4  0
  5  6  4  0
  6  1  4  0
M  END
$$$$

     RDKit          3D

  6  6  0  0  0  0  0  0  0  0999 V2000
   -0.7239   -1.1220    0.1799 N   0  0  0  0  0  0  0  0  0  0  0  0
    0.6058   -1.1911    0.1430 N   0  0  0  0  0  0  0  0  0  0  0  0
    1.3592   -0.0622    0.0847 C   0  0  0  0  0  0  0  0  0  0  0  0
    0.7248    1.1388    0.0649 N   0  0  0  0  0  0  0  0  0  0  0  0
   -0.6049    1.2080    0.1019 N   0  0  0  0  0  0  0  0  0  0  0  0
   -1.3584    0.0791    0.1602 C   0  0  0  0  0  0  0  0  0  0  0  0
  1  2  4  0
  2  3  4  0
  3  4  4  0
  4  5  4  0
  5  6  4  0
  6  1  4  0
M  END
$$$$

     RDKit          3D

  6  6  0  0  0  0  0  0  0  0999 V2000
    0.6225    0.4843   -0.9636 N   0  0  0  0  0  0  0  0  0  0  0  0
   -0.7070    0.5243   -0.8917 N   0  0  0  0  0  0  0  0  0  0  0  0
   -1.3589    0.0444    0.1993 C   0  0  0  0  0  0  0  0  0  0  0  0
   -0.6231   -0.4771    1.2152 N   0  0  0  0  0  0  0  0  0  0  0  0
    0.7064   -0.5170    1.1433 N   0  0  0  0  0  0  0  0  0  0  0  0
    1.3583   -0.0372    0.0523 C   0  0  0  0  0  0  0  0  0  0  0  0
  1  2  4  0
  2  3  4  0
  3  4  4  0
  4  5  4  0
  5  6  4  0
  6  1  4  0
M  END
$$$$

     RDKit          3D

  6  6  0  0  0  0  0  0  0  0999 V2000
    0.6225    0.4843   -0.9636 N   0  0  0  0  0  0  0  0  0  0  0  0
   -0.7070    0.5243   -0.8917 N   0  0  0  0  0  0  0  0  0  0  0  0
   -1.3589    0.0444    0.1993 C   0  0  0  0  0  0  0  0  0  0  0  0
   -0.6231   -0.4771    1.2152 N   0  0  0  0  0  0  0  0  0  0  0  0
    0.7064   -0.5170    1.1433 N   0  0  0  0  0  0  0  0  0  0  0  0
    1.3583   -0.0372    0.0523 C   0  0  0  0  0  0  0  0  0  0  0  0
  1  2  4  0
  2  3  4  0
  3  4  4  0
  4  5  4  0
  5  6  4  0
  6  1  4  0
M  END
$$$$

     RDKit          3D

  6  6  0  0  0  0  0  0  0  0999 V2000
    0.6039    0.8220    0.8923 N   0  0  0  0  0  0  0  0  0  0  0  0
   -0.7260    0.7967    0.8209 N   0  0  0  0  0  0  0  0  0  0  0  0
   -1.3594   -0.0201   -0.0607 C   0  0  0  0  0  0  0  0  0  0  0  0
   -0.6047   -0.8104   -0.8677 N   0  0  0  0  0  0  0  0  0  0  0  0
    0.7251   -0.7850   -0.7963 N   0  0  0  0  0  0  0  0  0  0  0  0
    1.3585    0.0317    0.0853 C   0  0  0  0  0  0  0  0  0  0  0  0
  1  2  4  0
  2  3  4  0
  3  4  4  0
  4  5  4  0
  5  6  4  0
  6  1  4  0
M  END
$$$$

     RDKit          3D

  6  6  0  0  0  0  0  0  0  0999 V2000
    0.6039    0.8220    0.8923 N   0  0  0  0  0  0  0  0  0  0  0  0
   -0.7260    0.7967    0.8209 N   0  0  0  0  0  0  0  0  0  0  0  0
   -1.3594   -0.0201   -0.0607 C   0  0  0  0  0  0  0  0  0  0  0  0
   -0.6047   -0.8104   -0.8677 N   0  0  0  0  0  0  0  0  0  0  0  0
    0.7251   -0.7850   -0.7963 N   0  0  0  0  0  0  0  0  0  0  0  0
    1.3585    0.0317    0.0853 C   0  0  0  0  0  0  0  0  0  0  0  0
  1  2  4  0
  2  3  4  0
  3  4  4  0
  4  5  4  0
  5  6  4  0
  6  1  4  0
M  END
$$$$

     RDKit          3D

  6  6  0  0  0  0  0  0  0  0999 V2000
    0.7932    0.7521   -0.8429 N   0  0  0  0  0  0  0  0  0  0  0  0
   -0.5302    0.8372   -0.9683 N   0  0  0  0  0  0  0  0  0  0  0  0
   -1.3533    0.1657   -0.1215 C   0  0  0  0  0  0  0  0  0  0  0  0
   -0.7951   -0.5948    0.8560 N   0  0  0  0  0  0  0  0  0  0  0  0
    0.5283   -0.6799    0.9814 N   0  0  0  0  0  0  0  0  0  0  0  0
    1.3514   -0.0083    0.1347 C   0  0  0  0  0  0  0  0  0  0  0  0
  1  2  4  0
  2  3  4  0
  3  4  4  0
  4  5  4  0
  5  6  4  0
  6  1  4  0
M  END
$$$$

     RDKit          3D

  6  6  0  0  0  0  0  0  0  0999 V2000
    0.7932    0.7521   -0.8429 N   0  0  0  0  0  0  0  0  0  0  0  0
   -0.5302    0.8372   -0.9683 N   0  0  0  0  0  0  0  0  0  0  0  0
   -1.3533    0.1657   -0.1215 C   0  0  0  0  0  0  0  0  0  0  0  0
   -0.7951   -0.5948    0.8560 N   0  0  0  0  0  0  0  0  0  0  0  0
    0.5283   -0.6799    0.9814 N   0  0  0  0  0  0  0  0  0  0  0  0
    1.3514   -0.0083    0.1347 C   0  0  0  0  0  0  0  0  0  0  0  0
  1  2  4  0
  2  3  4  0
  3  4  4  0
  4  5  4  0
  5  6  4  0
  6  1  4  0
M  END
$$$$

     RDKit          3D

  6  6  0  0  0  0  0  0  0  0999 V2000
    0.5944   -1.1743    0.2664 N   0  0  0  0  0  0  0  0  0  0  0  0
   -0.7348   -1.1002    0.2234 N   0  0  0  0  0  0  0  0  0  0  0  0
   -1.3578    0.0840   -0.0111 C   0  0  0  0  0  0  0  0  0  0  0  0
   -0.5934    1.1909   -0.2008 N   0  0  0  0  0  0  0  0  0  0  0  0
    0.7359    1.1168   -0.1578 N   0  0  0  0  0  0  0  0  0  0  0  0
    1.3589   -0.0674    0.0767 C   0  0  0  0  0  0  0  0  0  0  0  0
  1  2  4  0
  2  3  4  0
  3  4  4  0
  4  5  4  0
  5  6  4  0
  6  1  4  0
M  END
$$$$

     RDKit          3D

  6  6  0  0  0  0  0  0  0  0999 V2000
    0.5944   -1.1743    0.2664 N   0  0  0  0  0  0  0  0  0  0  0  0
   -0.7348   -1.1002    0.2234 N   0  0  0  0  0  0  0  0  0  0  0  0
   -1.3578    0.0840   -0.0111 C   0  0  0  0  0  0  0  0  0  0  0  0
   -0.5934    1.1909   -0.2008 N   0  0  0  0  0  0  0  0  0  0  0  0
    0.7359    1.1168   -0.1578 N   0  0  0  0  0  0  0  0  0  0  0  0
    1.3589   -0.0674    0.0767 C   0  0  0  0  0  0  0  0  0  0  0  0
  1  2  4  0
  2  3  4  0
  3  4  4  0
  4  5  4  0
  5  6  4  0
  6  1  4  0
M  END
$$$$

     RDKit          3D

  6  6  0  0  0  0  0  0  0  0999 V2000
   -0.6949    0.6394    0.9496 N   0  0  0  0  0  0  0  0  0  0  0  0
    0.6362    0.6869    0.9576 N   0  0  0  0  0  0  0  0  0  0  0  0
    1.3605    0.0436    0.0052 C   0  0  0  0  0  0  0  0  0  0  0  0
    0.6954   -0.6491   -0.9556 N   0  0  0  0  0  0  0  0  0  0  0  0
   -0.6358   -0.6966   -0.9636 N   0  0  0  0  0  0  0  0  0  0  0  0
   -1.3601   -0.0533   -0.0112 C   0  0  0  0  0  0  0  0  0  0  0  0
  1  2  4  0
  2  3  4  0
  3  4  4  0
  4  5  4  0
  5  6  4  0
  6  1  4  0
M  END
$$$$

     RDKit          3D

  6  6  0  0  0  0  0  0  0  0999 V2000
   -0.6949    0.6394    0.9496 N   0  0  0  0  0  0  0  0  0  0  0  0
    0.6362    0.6869    0.9576 N   0  0  0  0  0  0  0  0  0  0  0  0
    1.3605    0.0436    0.0052 C   0  0  0  0  0  0  0  0  0  0  0  0
    0.6954   -0.6491   -0.9556 N   0  0  0  0  0  0  0  0  0  0  0  0
   -0.6358   -0.6966   -0.9636 N   0  0  0  0  0  0  0  0  0  0  0  0
   -1.3601   -0.0533   -0.0112 C   0  0  0  0  0  0  0  0  0  0  0  0
  1  2  4  0
  2  3  4  0
  3  4  4  0
  4  5  4  0
  5  6  4  0
  6  1  4  0
M  END
$$$$

     RDKit          3D

  6  6  0  0  0  0  0  0  0  0999 V2000
    0.6341    0.3671   -1.0880 N   0  0  0  0  0  0  0  0  0  0  0  0
   -0.6969    0.3923   -1.0417 N   0  0  0  0  0  0  0  0  0  0  0  0
   -1.3603    0.0286    0.0866 C   0  0  0  0  0  0  0  0  0  0  0  0
   -0.6345   -0.3614    1.1666 N   0  0  0  0  0  0  0  0  0  0  0  0
    0.6965   -0.3867    1.1204 N   0  0  0  0  0  0  0  0  0  0  0  0
    1.3599   -0.0230   -0.0079 C   0  0  0  0  0  0  0  0  0  0  0  0
  1  2  4  0
  2  3  4  0
  3  4  4  0
  4  5  4  0
  5  6  4  0
  6  1  4  0
M  END
$$$$

     RDKit          3D

  6  6  0  0  0  0  0  0  0  0999 V2000
    0.6341    0.3671   -1.0880 N   0  0  0  0  0  0  0  0  0  0  0  0
   -0.6969    0.3923   -1.0417 N   0  0  0  0  0  0  0  0  0  0  0  0
   -1.3603    0.0286    0.0866 C   0  0  0  0  0  0  0  0  0  0  0  0
   -0.6345   -0.3614    1.1666 N   0  0  0  0  0  0  0  0  0  0  0  0
    0.6965   -0.3867    1.1204 N   0  0  0  0  0  0  0  0  0  0  0  0
    1.3599   -0.0230   -0.0079 C   0  0  0  0  0  0  0  0  0  0  0  0
  1  2  4  0
  2  3  4  0
  3  4  4  0
  4  5  4  0
  5  6  4  0
  6  1  4  0
M  END
$$$$

     RDKit          3D

  8  8  0  0  0  0  0  0  0  0999 V2000
    1.7495   -1.4020    2.8449 C   0  0  0  0  0  0  0  0  0  0  0  0
    1.3311    0.0314    2.5347 C   0  0  0  0  0  0  0  0  0  0  0  0
    0.6024    0.1212    1.2110 C   0  0  0  0  0  0  0  0  0  0  0  0
   -0.7842   -0.1068    1.1892 C   0  0  0  0  0  0  0  0  0  0  0  0
   -1.5147   -0.0189   -0.0080 C   0  0  0  0  0  0  0  0  0  0  0  0
   -0.8401    0.3046   -1.1952 C   0  0  0  0  0  0  0  0  0  0  0  0
    0.5375    0.5200   -1.1903 C   0  0  0  0  0  0  0  0  0  0  0  0
    1.2729    0.4120   -0.0024 C   0  0  0  0  0  0  0  0  0  0  0  0
  1  2  1  0
  2  3  1  0
  3  4  4  0
  4  5  4  0
  5  6  4  0
  6  7  4  0
  7  8  4  0
  8  3  4  0
M  END
$$$$

     RDKit          3D

  8  8  0  0  0  0  0  0  0  0999 V2000
   -1.4808    2.2582   -2.2459 C   0  0  0  0  0  0  0  0  0  0  0  0
   -1.1355    2.5058   -0.7809 C   0  0  0  0  0  0  0  0  0  0  0  0
   -0.4924    1.2890   -0.1508 C   0  0  0  0  0  0  0  0  0  0  0  0
    0.8973    1.1208   -0.2761 C   0  0  0  0  0  0  0  0  0  0  0  0
    1.5504    0.0230    0.3095 C   0  0  0  0  0  0  0  0  0  0  0  0
    0.7945   -0.9133    1.0316 C   0  0  0  0  0  0  0  0  0  0  0  0
   -0.5868   -0.7663    1.1516 C   0  0  0  0  0  0  0  0  0  0  0  0
   -1.2447    0.3151    0.5506 C   0  0  0  0  0  0  0  0  0  0  0  0
  1  2  1  0
  2  3  1  0
  3  4  4  0
  4  5  4  0
  5  6  4  0
  6  7  4  0
  7  8  4  0
  8  3  4  0
M  END
$$$$

     RDKit          3D

  8  8  0  0  0  0  0  0  0  0999 V2000
    1.7035    0.4228    2.8627 C   0  0  0  0  0  0  0  0  0  0  0  0
    1.5117   -0.8137    1.9899 C   0  0  0  0  0  0  0  0  0  0  0  0
    0.6919   -0.5042    0.7536 C   0  0  0  0  0  0  0  0  0  0  0  0
   -0.7045   -0.4095    0.8820 C   0  0  0  0  0  0  0  0  0  0  0  0
   -1.5182   -0.1288   -0.2286 C   0  0  0  0  0  0  0  0  0  0  0  0
   -0.9177    0.0638   -1.4821 C   0  0  0  0  0  0  0  0  0  0  0  0
    0.4665   -0.0240   -1.6247 C   0  0  0  0  0  0  0  0  0  0  0  0
    1.2818   -0.3032   -0.5190 C   0  0  0  0  0  0  0  0  0  0  0  0
  1  2  1  0
  2  3  1  0
  3  4  4  0
  4  5  4  0
  5  6  4  0
  6  7  4  0
  7  8  4  0
  8  3  4  0
M  END
$$$$

     RDKit          3D

  8  8  0  0  0  0  0  0  0  0999 V2000
    0.8930    2.2277   -2.6621 C   0  0  0  0  0  0  0  0  0  0  0  0
    1.1109    2.1847   -1.1525 C   0  0  0  0  0  0  0  0  0  0  0  0
    0.5254    0.9298   -0.5366 C   0  0  0  0  0  0  0  0  0  0  0  0
   -0.8667    0.8595   -0.3559 C   0  0  0  0  0  0  0  0  0  0  0  0
   -1.4698   -0.2791    0.2054 C   0  0  0  0  0  0  0  0  0  0  0  0
   -0.6606   -1.3601    0.5874 C   0  0  0  0  0  0  0  0  0  0  0  0
    0.7217   -1.3058    0.4134 C   0  0  0  0  0  0  0  0  0  0  0  0
    1.3275   -0.1701   -0.1421 C   0  0  0  0  0  0  0  0  0  0  0  0
  1  2  1  0
  2  3  1  0
  3  4  4  0
  4  5  4  0
  5  6  4  0
  6  7  4  0
  7  8  4  0
  8  3  4  0
M  END
$$$$

     RDKit          3D

  8  8  0  0  0  0  0  0  0  0999 V2000
   -1.3790    3.3860    0.3389 C   0  0  0  0  0  0  0  0  0  0  0  0
   -1.3104    2.1175    1.1841 C   0  0  0  0  0  0  0  0  0  0  0  0
   -0.6240    0.9873    0.4437 C   0  0  0  0  0  0  0  0  0  0  0  0
    0.7764    1.0170    0.3262 C   0  0  0  0  0  0  0  0  0  0  0  0
    1.4703   -0.0019   -0.3480 C   0  0  0  0  0  0  0  0  0  0  0  0
    0.7454   -1.0636   -0.9102 C   0  0  0  0  0  0  0  0  0  0  0  0
   -0.6441   -1.1062   -0.8037 C   0  0  0  0  0  0  0  0  0  0  0  0
   -1.3401   -0.0938   -0.1286 C   0  0  0  0  0  0  0  0  0  0  0  0
  1  2  1  0
  2  3  1  0
  3  4  4  0
  4  5  4  0
  5  6  4  0
  6  7  4  0
  7  8  4  0
  8  3  4  0
M  END
$$$$

     RDKit          3D

  8  8  0  0  0  0  0  0  0  0999 V2000
   -0.9054   -2.4874   -2.3301 C   0  0  0  0  0  0  0  0  0  0  0  0
   -1.0888   -2.2972   -0.8273 C   0  0  0  0  0  0  0  0  0  0  0  0
   -0.5156   -0.9761   -0.3551 C   0  0  0  0  0  0  0  0  0  0  0  0
    0.8790   -0.8602   -0.2232 C   0  0  0  0  0  0  0  0  0  0  0  0
    1.4708    0.3411    0.2025 C   0  0  0  0  0  0  0  0  0  0  0  0
    0.6484    1.4392    0.4970 C   0  0  0  0  0  0  0  0  0  0  0  0
   -0.7367    1.3394    0.3722 C   0  0  0  0  0  0  0  0  0  0  0  0
   -1.3314    0.1411   -0.0468 C   0  0  0  0  0  0  0  0  0  0  0  0
  1  2  1  0
  2  3  1  0
  3  4  4  0
  4  5  4  0
  5  6  4  0
  6  7  4  0
  7  8  4  0
  8  3  4  0
M  END
$$$$

     RDKit          3D

  8  8  0  0  0  0  0  0  0  0999 V2000
   -1.0083   -1.9232    2.7351 C   0  0  0  0  0  0  0  0  0  0  0  0
   -1.1627   -2.0497    1.2224 C   0  0  0  0  0  0  0  0  0  0  0  0
   -0.5467   -0.8714    0.4950 C   0  0  0  0  0  0  0  0  0  0  0  0
    0.8521   -0.8210    0.3665 C   0  0  0  0  0  0  0  0  0  0  0  0
    1.4828    0.2490   -0.2907 C   0  0  0  0  0  0  0  0  0  0  0  0
    0.6954    1.2814   -0.8227 C   0  0  0  0  0  0  0  0  0  0  0  0
   -0.6932    1.2453   -0.7037 C   0  0  0  0  0  0  0  0  0  0  0  0
   -1.3267    0.1771   -0.0535 C   0  0  0  0  0  0  0  0  0  0  0  0
  1  2  1  0
  2  3  1  0
  3  4  4  0
  4  5  4  0
  5  6  4  0
  6  7  4  0
  7  8  4  0
  8  3  4  0
M  END
$$$$

     RDKit          3D

  8  8  0  0  0  0  0  0  0  0999 V2000
   -0.8208    3.4548    0.1403 C   0  0  0  0  0  0  0  0  0  0  0  0
   -0.9513    2.2928    1.1192 C   0  0  0  0  0  0  0  0  0  0  0  0
   -0.4432    1.0045    0.5086 C   0  0  0  0  0  0  0  0  0  0  0  0
    0.9261    0.7057    0.6132 C   0  0  0  0  0  0  0  0  0  0  0  0
    1.4598   -0.4626    0.0430 C   0  0  0  0  0  0  0  0  0  0  0  0
    0.6048   -1.3327   -0.6507 C   0  0  0  0  0  0  0  0  0  0  0  0
   -0.7528   -1.0409   -0.7753 C   0  0  0  0  0  0  0  0  0  0  0  0
   -1.2913    0.1192   -0.2013 C   0  0  0  0  0  0  0  0  0  0  0  0
  1  2  1  0
  2  3  1  0
  3  4  4  0
  4  5  4  0
  5  6  4  0
  6  7  4  0
  7  8  4  0
  8  3  4  0
M  END
$$$$

     RDKit          3D

  8  8  0  0  0  0  0  0  0  0999 V2000
   -0.8301   -3.3954   -0.3055 C   0  0  0  0  0  0  0  0  0  0  0  0
   -1.2967   -2.1411    0.4362 C   0  0  0  0  0  0  0  0  0  0  0  0
   -0.6212   -0.8828   -0.0785 C   0  0  0  0  0  0  0  0  0  0  0  0
    0.7851   -0.8188   -0.0885 C   0  0  0  0  0  0  0  0  0  0  0  0
    1.4593    0.3287   -0.5386 C   0  0  0  0  0  0  0  0  0  0  0  0
    0.7106    1.4347   -0.9653 C   0  0  0  0  0  0  0  0  0  0  0  0
   -0.6819    1.4033   -0.9252 C   0  0  0  0  0  0  0  0  0  0  0  0
   -1.3607    0.2627   -0.4714 C   0  0  0  0  0  0  0  0  0  0  0  0
  1  2  1  0
  2  3  1  0
  3  4  4  0
  4  5  4  0
  5  6  4  0
  6  7  4  0
  7  8  4  0
  8  3  4  0
M  END
$$$$

     RDKit          3D

  8  8  0  0  0  0  0  0  0  0999 V2000
   -1.2429    3.0447    1.6907 C   0  0  0  0  0  0  0  0  0  0  0  0
   -1.0342    1.6568    2.2868 C   0  0  0  0  0  0  0  0  0  0  0  0
   -0.4626    0.6983    1.2643 C   0  0  0  0  0  0  0  0  0  0  0  0
    0.9310    0.6555    1.0883 C   0  0  0  0  0  0  0  0  0  0  0  0
    1.5183   -0.2214    0.1606 C   0  0  0  0  0  0  0  0  0  0  0  0
    0.6916   -1.0628   -0.5994 C   0  0  0  0  0  0  0  0  0  0  0  0
   -0.6936   -1.0207   -0.4456 C   0  0  0  0  0  0  0  0  0  0  0  0
   -1.2843   -0.1393    0.4701 C   0  0  0  0  0  0  0  0  0  0  0  0
  1  2  1  0
  2  3  1  0
  3  4  4  0
  4  5  4  0
  5  6  4  0
  6  7  4  0
  7  8  4  0
  8  3  4  0
M  END
$$$$

     RDKit          3D

  8  8  0  0  0  0  0  0  0  0999 V2000
    1.8479   -2.8017   -1.4767 C   0  0  0  0  0  0  0  0  0  0  0  0
    1.3856   -1.4003   -1.8535 C   0  0  0  0  0  0  0  0  0  0  0  0
    0.6491   -0.7144   -0.7176 C   0  0  0  0  0  0  0  0  0  0  0  0
   -0.7550   -0.7832   -0.6959 C   0  0  0  0  0  0  0  0  0  0  0  0
   -1.5002   -0.1144    0.2893 C   0  0  0  0  0  0  0  0  0  0  0  0
   -0.8247    0.6361    1.2624 C   0  0  0  0  0  0  0  0  0  0  0  0
    0.5676    0.6991    1.2666 C   0  0  0  0  0  0  0  0  0  0  0  0
    1.3197    0.0051    0.3072 C   0  0  0  0  0  0  0  0  0  0  0  0
  1  2  1  0
  2  3  1  0
  3  4  4  0
  4  5  4  0
  5  6  4  0
  6  7  4  0
  7  8  4  0
  8  3  4  0
M  END
$$$$

     RDKit          3D

  8  8  0  0  0  0  0  0  0  0999 V2000
   -1.8155   -2.2653   -1.9105 C   0  0  0  0  0  0  0  0  0  0  0  0
   -1.4062   -2.1132   -0.4515 C   0  0  0  0  0  0  0  0  0  0  0  0
   -0.6570   -0.8179   -0.1978 C   0  0  0  0  0  0  0  0  0  0  0  0
    0.7486   -0.8465   -0.2126 C   0  0  0  0  0  0  0  0  0  0  0  0
    1.5020    0.3006    0.0871 C   0  0  0  0  0  0  0  0  0  0  0  0
    0.8328    1.4894    0.4124 C   0  0  0  0  0  0  0  0  0  0  0  0
   -0.5601    1.5403    0.4103 C   0  0  0  0  0  0  0  0  0  0  0  0
   -1.3184    0.4090    0.0747 C   0  0  0  0  0  0  0  0  0  0  0  0
  1  2  1  0
  2  3  1  0
  3  4  4  0
  4  5  4  0
  5  6  4  0
  6  7  4  0
  7  8  4  0
  8  3  4  0
M  END
$$$$

     RDKit          3D

  8  8  0  0  0  0  0  0  0  0999 V2000
   -1.0960    0.5120   -3.4180 C   0  0  0  0  0  0  0  0  0  0  0  0
   -1.2889    1.2011   -2.0701 C   0  0  0  0  0  0  0  0  0  0  0  0
   -0.6075    0.4416   -0.9493 C   0  0  0  0  0  0  0  0  0  0  0  0
    0.7916    0.5196   -0.8413 C   0  0  0  0  0  0  0  0  0  0  0  0
    1.4802   -0.1581    0.1790 C   0  0  0  0  0  0  0  0  0  0  0  0
    0.7495   -0.9169    1.1062 C   0  0  0  0  0  0  0  0  0  0  0  0
   -0.6391   -1.0017    1.0139 C   0  0  0  0  0  0  0  0  0  0  0  0
   -1.3298   -0.3275   -0.0025 C   0  0  0  0  0  0  0  0  0  0  0  0
  1  2  1  0
  2  3  1  0
  3  4  4  0
  4  5  4  0
  5  6  4  0
  6  7  4  0
  7  8  4  0
  8  3  4  0
M  END
$$$$

     RDKit          3D

  8  8  0  0  0  0  0  0  0  0999 V2000
   -1.6761   -1.2942   -2.9051 C   0  0  0  0  0  0  0  0  0  0  0  0
   -1.1920    0.1127   -2.5818 C   0  0  0  0  0  0  0  0  0  0  0  0
   -0.5511    0.2028   -1.2084 C   0  0  0  0  0  0  0  0  0  0  0  0
    0.8468    0.0827   -1.1179 C   0  0  0  0  0  0  0  0  0  0  0  0
    1.5129    0.2460    0.1082 C   0  0  0  0  0  0  0  0  0  0  0  0
    0.7631    0.5391    1.2566 C   0  0  0  0  0  0  0  0  0  0  0  0
   -0.6255    0.6398    1.1882 C   0  0  0  0  0  0  0  0  0  0  0  0
   -1.3008    0.4337   -0.0240 C   0  0  0  0  0  0  0  0  0  0  0  0
  1  2  1  0
  2  3  1  0
  3  4  4  0
  4  5  4  0
  5  6  4  0
  6  7  4  0
  7  8  4  0
  8  3  4  0
M  END
$$$$

     RDKit          3D

  8  8  0  0  0  0  0  0  0  0999 V2000
    1.6346    0.2835    3.1965 C   0  0  0  0  0  0  0  0  0  0  0  0
    1.1019    1.3570    2.2571 C   0  0  0  0  0  0  0  0  0  0  0  0
    0.5018    0.7723    0.9910 C   0  0  0  0  0  0  0  0  0  0  0  0
   -0.8853    0.5446    0.9566 C   0  0  0  0  0  0  0  0  0  0  0  0
   -1.5187    0.0893   -0.2119 C   0  0  0  0  0  0  0  0  0  0  0  0
   -0.7475   -0.1329   -1.3620 C   0  0  0  0  0  0  0  0  0  0  0  0
    0.6315    0.0677   -1.3387 C   0  0  0  0  0  0  0  0  0  0  0  0
    1.2770    0.4775   -0.1626 C   0  0  0  0  0  0  0  0  0  0  0  0
  1  2  1  0
  2  3  1  0
  3  4  4  0
  4  5  4  0
  5  6  4  0
  6  7  4  0
  7  8  4  0
  8  3  4  0
M  END
$$$$

     RDKit          3D

  8  8  0  0  0  0  0  0  0  0999 V2000
   -1.4571   -0.4268    3.1964 C   0  0  0  0  0  0  0  0  0  0  0  0
   -1.5115    0.5743    2.0457 C   0  0  0  0  0  0  0  0  0  0  0  0
   -0.7165    0.1201    0.8335 C   0  0  0  0  0  0  0  0  0  0  0  0
    0.6868    0.1722    0.9043 C   0  0  0  0  0  0  0  0  0  0  0  0
    1.4851   -0.1827   -0.1960 C   0  0  0  0  0  0  0  0  0  0  0  0
    0.8633   -0.5855   -1.3870 C   0  0  0  0  0  0  0  0  0  0  0  0
   -0.5267   -0.6396   -1.4764 C   0  0  0  0  0  0  0  0  0  0  0  0
   -1.3283   -0.3037   -0.3759 C   0  0  0  0  0  0  0  0  0  0  0  0
  1  2  1  0
  2  3  1  0
  3  4  4  0
  4  5  4  0
  5  6  4  0
  6  7  4  0
  7  8  4  0
  8  3  4  0
M  END
$$$$

     RDKit          3D

  8  8  0  0  0  0  0  0  0  0999 V2000
   -1.1532    1.4712   -2.8803 C   0  0  0  0  0  0  0  0  0  0  0  0
   -1.4258    0.0941   -2.2725 C   0  0  0  0  0  0  0  0  0  0  0  0
   -0.6196   -0.1344   -1.0099 C   0  0  0  0  0  0  0  0  0  0  0  0
    0.7846   -0.0747   -1.0862 C   0  0  0  0  0  0  0  0  0  0  0  0
    1.5847   -0.2672    0.0521 C   0  0  0  0  0  0  0  0  0  0  0  0
    0.9668   -0.5382    1.2810 C   0  0  0  0  0  0  0  0  0  0  0  0
   -0.4209   -0.6310    1.3684 C   0  0  0  0  0  0  0  0  0  0  0  0
   -1.2256   -0.4422    0.2349 C   0  0  0  0  0  0  0  0  0  0  0  0
  1  2  1  0
  2  3  1  0
  3  4  4  0
  4  5  4  0
  5  6  4  0
  6  7  4  0
  7  8  4  0
  8  3  4  0
M  END
$$$$

     RDKit          3D

  8  8  0  0  0  0  0  0  0  0999 V2000
   -0.8468    3.1084   -0.2443 C   0  0  0  0  0  0  0  0  0  0  0  0
   -1.2848    1.8688   -1.0264 C   0  0  0  0  0  0  0  0  0  0  0  0
   -0.5891    0.6145   -0.5358 C   0  0  0  0  0  0  0  0  0  0  0  0
    0.8166    0.5604   -0.5809 C   0  0  0  0  0  0  0  0  0  0  0  0
    1.5164   -0.5684   -0.1247 C   0  0  0  0  0  0  0  0  0  0  0  0
    0.7955   -1.6639    0.3701 C   0  0  0  0  0  0  0  0  0  0  0  0
   -0.5979   -1.6428    0.3857 C   0  0  0  0  0  0  0  0  0  0  0  0
   -1.3036   -0.5187   -0.0703 C   0  0  0  0  0  0  0  0  0  0  0  0
  1  2  1  0
  2  3  1  0
  3  4  4  0
  4  5  4  0
  5  6  4  0
  6  7  4  0
  7  8  4  0
  8  3  4  0
M  END
$$$$

     RDKit          3D

  6  6  0  0  0  0  0  0  0  0999 V2000
   -1.2154   -0.1699   -0.9147 C   0  0  0  0  0  0  0  0  0  0  0  0
   -0.0070   -0.0467   -0.2996 N   0  0  0  0  0  0  0  0  0  0  0  0
    1.1705   -0.1074   -0.9803 C   0  0  0  0  0  0  0  0  0  0  0  0
    1.1281   -0.2858   -2.3726 C   0  0  0  0  0  0  0  0  0  0  0  0
   -0.0720   -0.3970   -2.9974 N   0  0  0  0  0  0  0  0  0  0  0  0
   -1.2403   -0.3478   -2.3075 C   0  0  0  0  0  0  0  0  0  0  0  0
  1  2  4  0
  2  3  4  0
  3  4  4  0
  4  5  4  0
  5  6  4  0
  6  1  4  0
M  END
$$$$

     RDKit          3D

  6  6  0  0  0  0  0  0  0  0999 V2000
    1.1574   -1.0001   -0.2071 C   0  0  0  0  0  0  0  0  0  0  0  0
   -0.0111   -0.3018   -0.1821 N   0  0  0  0  0  0  0  0  0  0  0  0
   -1.2278   -0.9079   -0.2587 C   0  0  0  0  0  0  0  0  0  0  0  0
   -1.2712   -2.3087   -0.3483 C   0  0  0  0  0  0  0  0  0  0  0  0
   -0.1121   -3.0153   -0.3612 N   0  0  0  0  0  0  0  0  0  0  0  0
    1.0965   -2.4002   -0.2970 C   0  0  0  0  0  0  0  0  0  0  0  0
  1  2  4  0
  2  3  4  0
  3  4  4  0
  4  5  4  0
  5  6  4  0
  6  1  4  0
M  END
$$$$

     RDKit          3D

  6  6  0  0  0  0  0  0  0  0999 V2000
    1.1802   -0.7372   -0.5439 C   0  0  0  0  0  0  0  0  0  0  0  0
   -0.0039   -0.2922   -0.0383 N   0  0  0  0  0  0  0  0  0  0  0  0
   -1.2018   -0.8884   -0.2937 C   0  0  0  0  0  0  0  0  0  0  0  0
   -1.2034   -2.0229   -1.1251 C   0  0  0  0  0  0  0  0  0  0  0  0
   -0.0330   -2.4796   -1.6372 N   0  0  0  0  0  0  0  0  0  0  0  0
    1.1515   -1.8734   -1.3724 C   0  0  0  0  0  0  0  0  0  0  0  0
  1  2  4  0
  2  3  4  0
  3  4  4  0
  4  5  4  0
  5  6  4  0
  6  1  4  0
M  END
$$$$

     RDKit          3D

  6  6  0  0  0  0  0  0  0  0999 V2000
    1.0617    0.3426   -1.0961 C   0  0  0  0  0  0  0  0  0  0  0  0
   -0.0321    0.0063   -0.3570 N   0  0  0  0  0  0  0  0  0  0  0  0
   -1.2403   -0.3076   -0.9023 C   0  0  0  0  0  0  0  0  0  0  0  0
   -1.3520   -0.2795   -2.3041 C   0  0  0  0  0  0  0  0  0  0  0  0
   -0.2726    0.0533   -3.0555 N   0  0  0  0  0  0  0  0  0  0  0  0
    0.9238    0.3633   -2.4956 C   0  0  0  0  0  0  0  0  0  0  0  0
  1  2  4  0
  2  3  4  0
  3  4  4  0
  4  5  4  0
  5  6  4  0
  6  1  4  0
M  END
$$$$

     RDKit          3D

  3  2  0  0  0  0  0  0  0  0999 V2000
   -0.0597    1.6922    0.6444 F   0  0  0  0  0  0  0  0  0  0  0  0
    0.4042    0.5170    0.1471 C   0  0  0  0  0  0  0  0  0  0  0  0
   -0.3908   -0.5499    0.0644 C   0  0  0  0  0  0  0  0  0  0  0  0
  1  2  1  0
  2  3  2  0
M  END
$$$$

     RDKit          3D

  3  2  0  0  0  0  0  0  0  0999 V2000
   -0.0597    1.6922    0.6444 F   0  0  0  0  0  0  0  0  0  0  0  0
    0.4042    0.5170    0.1471 C   0  0  0  0  0  0  0  0  0  0  0  0
   -0.3908   -0.5499    0.0644 C   0  0  0  0  0  0  0  0  0  0  0  0
  1  2  1  0
  2  3  2  0
M  END
$$$$

     RDKit          3D

  3  2  0  0  0  0  0  0  0  0999 V2000
   -0.0597    1.6922    0.6444 F   0  0  0  0  0  0  0  0  0  0  0  0
    0.4042    0.5170    0.1471 C   0  0  0  0  0  0  0  0  0  0  0  0
   -0.3908   -0.5499    0.0644 C   0  0  0  0  0  0  0  0  0  0  0  0
  1  2  1  0
  2  3  2  0
M  END
$$$$

     RDKit          3D

  3  2  0  0  0  0  0  0  0  0999 V2000
   -0.7159   -1.5966    0.6436 F   0  0  0  0  0  0  0  0  0  0  0  0
   -0.5728   -0.3629    0.0951 C   0  0  0  0  0  0  0  0  0  0  0  0
    0.5414    0.3437    0.2865 C   0  0  0  0  0  0  0  0  0  0  0  0
  1  2  1  0
  2  3  2  0
M  END
$$$$

     RDKit          3D

  3  2  0  0  0  0  0  0  0  0999 V2000
   -0.7159   -1.5966    0.6436 F   0  0  0  0  0  0  0  0  0  0  0  0
   -0.5728   -0.3629    0.0951 C   0  0  0  0  0  0  0  0  0  0  0  0
    0.5414    0.3437    0.2865 C   0  0  0  0  0  0  0  0  0  0  0  0
  1  2  1  0
  2  3  2  0
M  END
$$$$

     RDKit          3D

  3  2  0  0  0  0  0  0  0  0999 V2000
   -0.7159   -1.5966    0.6436 F   0  0  0  0  0  0  0  0  0  0  0  0
   -0.5728   -0.3629    0.0951 C   0  0  0  0  0  0  0  0  0  0  0  0
    0.5414    0.3437    0.2865 C   0  0  0  0  0  0  0  0  0  0  0  0
  1  2  1  0
  2  3  2  0
M  END
$$$$

     RDKit          3D

  3  2  0  0  0  0  0  0  0  0999 V2000
    0.6269   -1.1208    1.3476 F   0  0  0  0  0  0  0  0  0  0  0  0
   -0.2272   -0.3538    0.6226 C   0  0  0  0  0  0  0  0  0  0  0  0
    0.2085    0.3529   -0.4205 C   0  0  0  0  0  0  0  0  0  0  0  0
  1  2  1  0
  2  3  2  0
M  END
$$$$

     RDKit          3D

  3  2  0  0  0  0  0  0  0  0999 V2000
    0.6269   -1.1208    1.3476 F   0  0  0  0  0  0  0  0  0  0  0  0
   -0.2272   -0.3538    0.6226 C   0  0  0  0  0  0  0  0  0  0  0  0
    0.2085    0.3529   -0.4205 C   0  0  0  0  0  0  0  0  0  0  0  0
  1  2  1  0
  2  3  2  0
M  END
$$$$

     RDKit          3D

  3  2  0  0  0  0  0  0  0  0999 V2000
    0.6269   -1.1208    1.3476 F   0  0  0  0  0  0  0  0  0  0  0  0
   -0.2272   -0.3538    0.6226 C   0  0  0  0  0  0  0  0  0  0  0  0
    0.2085    0.3529   -0.4205 C   0  0  0  0  0  0  0  0  0  0  0  0
  1  2  1  0
  2  3  2  0
M  END
$$$$

     RDKit          3D

  3  2  0  0  0  0  0  0  0  0999 V2000
    0.5030    1.6475   -0.3370 F   0  0  0  0  0  0  0  0  0  0  0  0
   -0.2514    0.5312   -0.1694 C   0  0  0  0  0  0  0  0  0  0  0  0
    0.2325   -0.5282    0.4793 C   0  0  0  0  0  0  0  0  0  0  0  0
  1  2  1  0
  2  3  2  0
M  END
$$$$

     RDKit          3D

  3  2  0  0  0  0  0  0  0  0999 V2000
    0.5030    1.6475   -0.3370 F   0  0  0  0  0  0  0  0  0  0  0  0
   -0.2514    0.5312   -0.1694 C   0  0  0  0  0  0  0  0  0  0  0  0
    0.2325   -0.5282    0.4793 C   0  0  0  0  0  0  0  0  0  0  0  0
  1  2  1  0
  2  3  2  0
M  END
$$$$

     RDKit          3D

  3  2  0  0  0  0  0  0  0  0999 V2000
    0.5030    1.6475   -0.3370 F   0  0  0  0  0  0  0  0  0  0  0  0
   -0.2514    0.5312   -0.1694 C   0  0  0  0  0  0  0  0  0  0  0  0
    0.2325   -0.5282    0.4793 C   0  0  0  0  0  0  0  0  0  0  0  0
  1  2  1  0
  2  3  2  0
M  END
$$$$

     RDKit          3D

  3  2  0  0  0  0  0  0  0  0999 V2000
   -1.4992   -2.9798   -0.8202 F   0  0  0  0  0  0  0  0  0  0  0  0
   -0.7804   -1.8878   -0.4616 C   0  0  0  0  0  0  0  0  0  0  0  0
    0.5000   -2.0363   -0.1084 C   0  0  0  0  0  0  0  0  0  0  0  0
  1  2  1  0
  2  3  2  0
M  END
$$$$

     RDKit          3D

  3  2  0  0  0  0  0  0  0  0999 V2000
   -1.4992   -2.9798   -0.8202 F   0  0  0  0  0  0  0  0  0  0  0  0
   -0.7804   -1.8878   -0.4616 C   0  0  0  0  0  0  0  0  0  0  0  0
    0.5000   -2.0363   -0.1084 C   0  0  0  0  0  0  0  0  0  0  0  0
  1  2  1  0
  2  3  2  0
M  END
$$$$

     RDKit          3D

  3  2  0  0  0  0  0  0  0  0999 V2000
   -1.4992   -2.9798   -0.8202 F   0  0  0  0  0  0  0  0  0  0  0  0
   -0.7804   -1.8878   -0.4616 C   0  0  0  0  0  0  0  0  0  0  0  0
    0.5000   -2.0363   -0.1084 C   0  0  0  0  0  0  0  0  0  0  0  0
  1  2  1  0
  2  3  2  0
M  END
$$$$

     RDKit          3D

  3  2  0  0  0  0  0  0  0  0999 V2000
    0.8096   -3.2663   -0.5270 F   0  0  0  0  0  0  0  0  0  0  0  0
    0.3624   -2.0035   -0.3196 C   0  0  0  0  0  0  0  0  0  0  0  0
   -0.8418   -1.6534   -0.7815 C   0  0  0  0  0  0  0  0  0  0  0  0
  1  2  1  0
  2  3  2  0
M  END
$$$$

     RDKit          3D

  3  2  0  0  0  0  0  0  0  0999 V2000
    0.8096   -3.2663   -0.5270 F   0  0  0  0  0  0  0  0  0  0  0  0
    0.3624   -2.0035   -0.3196 C   0  0  0  0  0  0  0  0  0  0  0  0
   -0.8418   -1.6534   -0.7815 C   0  0  0  0  0  0  0  0  0  0  0  0
  1  2  1  0
  2  3  2  0
M  END
$$$$

     RDKit          3D

  3  2  0  0  0  0  0  0  0  0999 V2000
    0.8096   -3.2663   -0.5270 F   0  0  0  0  0  0  0  0  0  0  0  0
    0.3624   -2.0035   -0.3196 C   0  0  0  0  0  0  0  0  0  0  0  0
   -0.8418   -1.6534   -0.7815 C   0  0  0  0  0  0  0  0  0  0  0  0
  1  2  1  0
  2  3  2  0
M  END
$$$$

     RDKit          3D

  3  2  0  0  0  0  0  0  0  0999 V2000
    0.5064   -3.1645   -1.4255 F   0  0  0  0  0  0  0  0  0  0  0  0
    0.4499   -1.9159   -0.9003 C   0  0  0  0  0  0  0  0  0  0  0  0
    1.5342   -1.4079   -0.3068 C   0  0  0  0  0  0  0  0  0  0  0  0
  1  2  1  0
  2  3  2  0
M  END
$$$$

     RDKit          3D

  3  2  0  0  0  0  0  0  0  0999 V2000
    0.5064   -3.1645   -1.4255 F   0  0  0  0  0  0  0  0  0  0  0  0
    0.4499   -1.9159   -0.9003 C   0  0  0  0  0  0  0  0  0  0  0  0
    1.5342   -1.4079   -0.3068 C   0  0  0  0  0  0  0  0  0  0  0  0
  1  2  1  0
  2  3  2  0
M  END
$$$$

     RDKit          3D

  3  2  0  0  0  0  0  0  0  0999 V2000
    0.5064   -3.1645   -1.4255 F   0  0  0  0  0  0  0  0  0  0  0  0
    0.4499   -1.9159   -0.9003 C   0  0  0  0  0  0  0  0  0  0  0  0
    1.5342   -1.4079   -0.3068 C   0  0  0  0  0  0  0  0  0  0  0  0
  1  2  1  0
  2  3  2  0
M  END
$$$$
