
     RDKit          3D

  6  6  0  0  0  0  0  0  0  0999 V2000
   -0.5197   -0.1132    1.1049 N   0  0  0  0  0  0  0  0  0  0  0  0
    0.7606    0.1382    0.8384 N   0  0  0  0  0  0  0  0  0  0  0  0
    1.1122    0.8593   -0.2561 C   0  0  0  0  0  0  0  0  0  0  0  0
    0.1295    1.3456   -1.0570 N   0  0  0  0  0  0  0  0  0  0  0  0
   -1.1512    1.0926   -0.7910 N   0  0  0  0  0  0  0  0  0  0  0  0
   -1.5016    0.3431    0.2868 C   0  0  0  0  0  0  0  0  0  0  0  0
  1  2  4  0
  2  3  4  0
  3  4  4  0
  4  5  4  0
  5  6  4  0
  6  1  4  0
M  END
$$$$

     RDKit          3D

  6  6  0  0  0  0  0  0  0  0999 V2000
   -0.6783   -0.4718    1.0181 N   0  0  0  0  0  0  0  0  0  0  0  0
    0.6514   -0.4389    0.9478 N   0  0  0  0  0  0  0  0  0  0  0  0
    1.2908   -0.6953   -0.2212 C   0  0  0  0  0  0  0  0  0  0  0  0
    0.5463   -1.0055   -1.3139 N   0  0  0  0  0  0  0  0  0  0  0  0
   -0.7834   -1.0385   -1.2438 N   0  0  0  0  0  0  0  0  0  0  0  0
   -1.4230   -0.7813   -0.0746 C   0  0  0  0  0  0  0  0  0  0  0  0
  1  2  4  0
  2  3  4  0
  3  4  4  0
  4  5  4  0
  5  6  4  0
  6  1  4  0
M  END
$$$$

     RDKit          3D

  6  6  0  0  0  0  0  0  0  0999 V2000
    1.0118   -1.4704    0.2300 N   0  0  0  0  0  0  0  0  0  0  0  0
   -0.2842   -1.6511    0.4783 N   0  0  0  0  0  0  0  0  0  0  0  0
   -1.2176   -0.8418   -0.0857 C   0  0  0  0  0  0  0  0  0  0  0  0
   -0.8024    0.1422   -0.9227 N   0  0  0  0  0  0  0  0  0  0  0  0
    0.4936    0.3230   -1.1711 N   0  0  0  0  0  0  0  0  0  0  0  0
    1.4273   -0.4857   -0.6066 C   0  0  0  0  0  0  0  0  0  0  0  0
  1  2  4  0
  2  3  4  0
  3  4  4  0
  4  5  4  0
  5  6  4  0
  6  1  4  0
M  END
$$$$

     RDKit          3D

  6  6  0  0  0  0  0  0  0  0999 V2000
    1.2003   -1.1609    0.3738 N   0  0  0  0  0  0  0  0  0  0  0  0
   -0.0659   -1.5021    0.6076 N   0  0  0  0  0  0  0  0  0  0  0  0
   -1.0816   -0.8924   -0.0564 C   0  0  0  0  0  0  0  0  0  0  0  0
   -0.7769    0.0462   -0.9875 N   0  0  0  0  0  0  0  0  0  0  0  0
    0.4890    0.3868   -1.2215 N   0  0  0  0  0  0  0  0  0  0  0  0
    1.5026   -0.1971   -0.5341 C   0  0  0  0  0  0  0  0  0  0  0  0
  1  2  4  0
  2  3  4  0
  3  4  4  0
  4  5  4  0
  5  6  4  0
  6  1  4  0
M  END
$$$$

     RDKit          3D

  6  6  0  0  0  0  0  0  0  0999 V2000
    1.1330    0.6582    1.1418 N   0  0  0  0  0  0  0  0  0  0  0  0
   -0.1569    0.8263    1.4288 N   0  0  0  0  0  0  0  0  0  0  0  0
   -1.0940    0.8030    0.4462 C   0  0  0  0  0  0  0  0  0  0  0  0
   -0.6847    0.6398   -0.8370 N   0  0  0  0  0  0  0  0  0  0  0  0
    0.6050    0.4722   -1.1238 N   0  0  0  0  0  0  0  0  0  0  0  0
    1.5385    0.4610   -0.1394 C   0  0  0  0  0  0  0  0  0  0  0  0
  1  2  4  0
  2  3  4  0
  3  4  4  0
  4  5  4  0
  5  6  4  0
  6  1  4  0
M  END
$$$$

     RDKit          3D

  6  6  0  0  0  0  0  0  0  0999 V2000
    0.9812   -1.3020   -1.2768 N   0  0  0  0  0  0  0  0  0  0  0  0
   -0.3361   -1.4993   -1.2819 N   0  0  0  0  0  0  0  0  0  0  0  0
   -1.1385   -0.8463   -0.4020 C   0  0  0  0  0  0  0  0  0  0  0  0
   -0.5670   -0.0030    0.4943 N   0  0  0  0  0  0  0  0  0  0  0  0
    0.7501    0.1943    0.4994 N   0  0  0  0  0  0  0  0  0  0  0  0
    1.5525   -0.4584   -0.3807 C   0  0  0  0  0  0  0  0  0  0  0  0
  1  2  4  0
  2  3  4  0
  3  4  4  0
  4  5  4  0
  5  6  4  0
  6  1  4  0
M  END
$$$$

     RDKit          3D

  6  6  0  0  0  0  0  0  0  0999 V2000
   -0.7418    0.1719    0.6096 N   0  0  0  0  0  0  0  0  0  0  0  0
    0.5876    0.1889    0.5301 N   0  0  0  0  0  0  0  0  0  0  0  0
    1.2462   -0.6923   -0.2642 C   0  0  0  0  0  0  0  0  0  0  0  0
    0.5214   -1.6039   -0.9626 N   0  0  0  0  0  0  0  0  0  0  0  0
   -0.8081   -1.6210   -0.8832 N   0  0  0  0  0  0  0  0  0  0  0  0
   -1.4666   -0.7401   -0.0885 C   0  0  0  0  0  0  0  0  0  0  0  0
  1  2  4  0
  2  3  4  0
  3  4  4  0
  4  5  4  0
  5  6  4  0
  6  1  4  0
M  END
$$$$

     RDKit          3D

  6  6  0  0  0  0  0  0  0  0999 V2000
   -0.8025   -1.0023   -0.0003 N   0  0  0  0  0  0  0  0  0  0  0  0
    0.4559   -1.0349   -0.4352 N   0  0  0  0  0  0  0  0  0  0  0  0
    1.0542    0.0873   -0.9079 C   0  0  0  0  0  0  0  0  0  0  0  0
    0.3321    1.2361   -0.9628 N   0  0  0  0  0  0  0  0  0  0  0  0
   -0.9267    1.2684   -0.5282 N   0  0  0  0  0  0  0  0  0  0  0  0
   -1.5139    0.1534   -0.0217 C   0  0  0  0  0  0  0  0  0  0  0  0
  1  2  4  0
  2  3  4  0
  3  4  4  0
  4  5  4  0
  5  6  4  0
  6  1  4  0
M  END
$$$$

     RDKit          3D

  6  6  0  0  0  0  0  0  0  0999 V2000
   -1.0302   -0.2998    1.3220 N   0  0  0  0  0  0  0  0  0  0  0  0
    0.2422   -0.0703    1.6423 N   0  0  0  0  0  0  0  0  0  0  0  0
    1.0505    0.6305    0.8062 C   0  0  0  0  0  0  0  0  0  0  0  0
    0.5258    1.1256   -0.3429 N   0  0  0  0  0  0  0  0  0  0  0  0
   -0.7463    0.8957   -0.6629 N   0  0  0  0  0  0  0  0  0  0  0  0
   -1.5448    0.1629    0.1534 C   0  0  0  0  0  0  0  0  0  0  0  0
  1  2  4  0
  2  3  4  0
  3  4  4  0
  4  5  4  0
  5  6  4  0
  6  1  4  0
M  END
$$$$

     RDKit          3D

  6  6  0  0  0  0  0  0  0  0999 V2000
    0.8707   -1.1115    1.0152 N   0  0  0  0  0  0  0  0  0  0  0  0
   -0.4547   -1.2386    1.0503 N   0  0  0  0  0  0  0  0  0  0  0  0
   -1.2161   -0.8442   -0.0024 C   0  0  0  0  0  0  0  0  0  0  0  0
   -0.5978   -0.3380   -1.0990 N   0  0  0  0  0  0  0  0  0  0  0  0
    0.7277   -0.2111   -1.1337 N   0  0  0  0  0  0  0  0  0  0  0  0
    1.4898   -0.6032   -0.0801 C   0  0  0  0  0  0  0  0  0  0  0  0
  1  2  4  0
  2  3  4  0
  3  4  4  0
  4  5  4  0
  5  6  4  0
  6  1  4  0
M  END
$$$$

     RDKit          3D

  6  6  0  0  0  0  0  0  0  0999 V2000
   -0.3835   -0.9841    0.6326 N   0  0  0  0  0  0  0  0  0  0  0  0
    0.8022   -0.7590    0.0652 N   0  0  0  0  0  0  0  0  0  0  0  0
    0.8976   -0.0514   -1.0899 C   0  0  0  0  0  0  0  0  0  0  0  0
   -0.2448    0.3819   -1.6818 N   0  0  0  0  0  0  0  0  0  0  0  0
   -1.4309    0.1587   -1.1140 N   0  0  0  0  0  0  0  0  0  0  0  0
   -1.5196   -0.5067    0.0694 C   0  0  0  0  0  0  0  0  0  0  0  0
  1  2  4  0
  2  3  4  0
  3  4  4  0
  4  5  4  0
  5  6  4  0
  6  1  4  0
M  END
$$$$

     RDKit          3D

  6  6  0  0  0  0  0  0  0  0999 V2000
    0.7289   -0.8872    0.5513 N   0  0  0  0  0  0  0  0  0  0  0  0
   -0.5913   -1.0346    0.4554 N   0  0  0  0  0  0  0  0  0  0  0  0
   -1.3442   -0.1240   -0.2126 C   0  0  0  0  0  0  0  0  0  0  0  0
   -0.7248    0.9507   -0.7655 N   0  0  0  0  0  0  0  0  0  0  0  0
    0.5955    1.0982   -0.6696 N   0  0  0  0  0  0  0  0  0  0  0  0
    1.3483    0.1875   -0.0015 C   0  0  0  0  0  0  0  0  0  0  0  0
  1  2  4  0
  2  3  4  0
  3  4  4  0
  4  5  4  0
  5  6  4  0
  6  1  4  0
M  END
$$$$

     RDKit          3D

  6  6  0  0  0  0  0  0  0  0999 V2000
   -0.6410   -0.0276   -1.1915 N   0  0  0  0  0  0  0  0  0  0  0  0
    0.6843    0.0890   -1.1310 N   0  0  0  0  0  0  0  0  0  0  0  0
    1.3037    0.3558    0.0468 C   0  0  0  0  0  0  0  0  0  0  0  0
    0.5462    0.4679    1.1685 N   0  0  0  0  0  0  0  0  0  0  0  0
   -0.7794    0.3518    1.1077 N   0  0  0  0  0  0  0  0  0  0  0  0
   -1.4009    0.1187   -0.0771 C   0  0  0  0  0  0  0  0  0  0  0  0
  1  2  4  0
  2  3  4  0
  3  4  4  0
  4  5  4  0
  5  6  4  0
  6  1  4  0
M  END
$$$$

     RDKit          3D

  6  6  0  0  0  0  0  0  0  0999 V2000
   -0.4405    0.2935   -1.0294 N   0  0  0  0  0  0  0  0  0  0  0  0
    0.8679    0.1705   -0.8134 N   0  0  0  0  0  0  0  0  0  0  0  0
    1.3484   -0.0119    0.4435 C   0  0  0  0  0  0  0  0  0  0  0  0
    0.4695   -0.0460    1.4767 N   0  0  0  0  0  0  0  0  0  0  0  0
   -0.8391    0.0770    1.2608 N   0  0  0  0  0  0  0  0  0  0  0  0
   -1.3202    0.2581    0.0037 C   0  0  0  0  0  0  0  0  0  0  0  0
  1  2  4  0
  2  3  4  0
  3  4  4  0
  4  5  4  0
  5  6  4  0
  6  1  4  0
M  END
$$$$

     RDKit          3D

  6  6  0  0  0  0  0  0  0  0999 V2000
   -0.3611   -0.0609   -1.1036 N   0  0  0  0  0  0  0  0  0  0  0  0
    0.9276   -0.0846   -0.7679 N   0  0  0  0  0  0  0  0  0  0  0  0
    1.3027   -0.1719    0.5341 C   0  0  0  0  0  0  0  0  0  0  0  0
    0.3378   -0.2549    1.4845 N   0  0  0  0  0  0  0  0  0  0  0  0
   -0.9510   -0.2311    1.1489 N   0  0  0  0  0  0  0  0  0  0  0  0
   -1.3267   -0.1424   -0.1532 C   0  0  0  0  0  0  0  0  0  0  0  0
  1  2  4  0
  2  3  4  0
  3  4  4  0
  4  5  4  0
  5  6  4  0
  6  1  4  0
M  END
$$$$

     RDKit          3D

  6  6  0  0  0  0  0  0  0  0999 V2000
   -0.7962    1.2104    0.7508 N   0  0  0  0  0  0  0  0  0  0  0  0
    0.5216    1.3996    0.7087 N   0  0  0  0  0  0  0  0  0  0  0  0
    1.3522    0.4025    0.3124 C   0  0  0  0  0  0  0  0  0  0  0  0
    0.8139   -0.7988   -0.0207 N   0  0  0  0  0  0  0  0  0  0  0  0
   -0.5038   -0.9881    0.0218 N   0  0  0  0  0  0  0  0  0  0  0  0
   -1.3352    0.0093    0.4169 C   0  0  0  0  0  0  0  0  0  0  0  0
  1  2  4  0
  2  3  4  0
  3  4  4  0
  4  5  4  0
  5  6  4  0
  6  1  4  0
M  END
$$$$

     RDKit          3D

  6  6  0  0  0  0  0  0  0  0999 V2000
    0.6099    1.1583   -0.8892 N   0  0  0  0  0  0  0  0  0  0  0  0
   -0.7157    1.1891   -0.7652 N   0  0  0  0  0  0  0  0  0  0  0  0
   -1.3671    0.2344   -0.0546 C   0  0  0  0  0  0  0  0  0  0  0  0
   -0.6435   -0.7743    0.4959 N   0  0  0  0  0  0  0  0  0  0  0  0
    0.6824   -0.8052    0.3718 N   0  0  0  0  0  0  0  0  0  0  0  0
    1.3370    0.1715   -0.3075 C   0  0  0  0  0  0  0  0  0  0  0  0
  1  2  4  0
  2  3  4  0
  3  4  4  0
  4  5  4  0
  5  6  4  0
  6  1  4  0
M  END
$$$$

     RDKit          3D

  6  6  0  0  0  0  0  0  0  0999 V2000
    0.8203    0.0176    1.0825 N   0  0  0  0  0  0  0  0  0  0  0  0
   -0.4968   -0.0582    1.2660 N   0  0  0  0  0  0  0  0  0  0  0  0
   -1.3431   -0.0885    0.2058 C   0  0  0  0  0  0  0  0  0  0  0  0
   -0.8208   -0.0207   -1.0458 N   0  0  0  0  0  0  0  0  0  0  0  0
    0.4963    0.0550   -1.2292 N   0  0  0  0  0  0  0  0  0  0  0  0
    1.3427    0.0853   -0.1691 C   0  0  0  0  0  0  0  0  0  0  0  0
  1  2  4  0
  2  3  4  0
  3  4  4  0
  4  5  4  0
  5  6  4  0
  6  1  4  0
M  END
$$$$

     RDKit          3D

  6  6  0  0  0  0  0  0  0  0999 V2000
    0.3758    0.0505    1.2434 N   0  0  0  0  0  0  0  0  0  0  0  0
   -0.9190    0.0781    0.9322 N   0  0  0  0  0  0  0  0  0  0  0  0
   -1.3219    0.0116   -0.3627 C   0  0  0  0  0  0  0  0  0  0  0  0
   -0.3778   -0.0650   -1.3341 N   0  0  0  0  0  0  0  0  0  0  0  0
    0.9171   -0.0933   -1.0231 N   0  0  0  0  0  0  0  0  0  0  0  0
    1.3200   -0.0265    0.2719 C   0  0  0  0  0  0  0  0  0  0  0  0
  1  2  4  0
  2  3  4  0
  3  4  4  0
  4  5  4  0
  5  6  4  0
  6  1  4  0
M  END
$$$$

     RDKit          3D

  6  6  0  0  0  0  0  0  0  0999 V2000
   -0.6561    0.1534   -0.9761 N   0  0  0  0  0  0  0  0  0  0  0  0
    0.6739    0.2282   -0.9404 N   0  0  0  0  0  0  0  0  0  0  0  0
    1.3433    0.0637    0.2279 C   0  0  0  0  0  0  0  0  0  0  0  0
    0.6313   -0.1456    1.3641 N   0  0  0  0  0  0  0  0  0  0  0  0
   -0.6984   -0.2201    1.3283 N   0  0  0  0  0  0  0  0  0  0  0  0
   -1.3673   -0.0887    0.1550 C   0  0  0  0  0  0  0  0  0  0  0  0
  1  2  4  0
  2  3  4  0
  3  4  4  0
  4  5  4  0
  5  6  4  0
  6  1  4  0
M  END
$$$$

     RDKit          3D

  6  6  0  0  0  0  0  0  0  0999 V2000
    0.6642   -1.3413    0.3098 N   0  0  0  0  0  0  0  0  0  0  0  0
   -0.6629   -1.3570    0.2048 N   0  0  0  0  0  0  0  0  0  0  0  0
   -1.3431   -0.2433   -0.1676 C   0  0  0  0  0  0  0  0  0  0  0  0
   -0.6439    0.9007   -0.3951 N   0  0  0  0  0  0  0  0  0  0  0  0
    0.6841    0.9178   -0.2887 N   0  0  0  0  0  0  0  0  0  0  0  0
    1.3646   -0.2087    0.0471 C   0  0  0  0  0  0  0  0  0  0  0  0
  1  2  4  0
  2  3  4  0
  3  4  4  0
  4  5  4  0
  5  6  4  0
  6  1  4  0
M  END
$$$$

     RDKit          3D

  6  6  0  0  0  0  0  0  0  0999 V2000
    0.7749   -0.6778   -0.8685 N   0  0  0  0  0  0  0  0  0  0  0  0
   -0.5445   -0.6127   -1.0369 N   0  0  0  0  0  0  0  0  0  0  0  0
   -1.3540   -0.2172   -0.0216 C   0  0  0  0  0  0  0  0  0  0  0  0
   -0.7876    0.1539    1.1535 N   0  0  0  0  0  0  0  0  0  0  0  0
    0.5327    0.0915    1.3201 N   0  0  0  0  0  0  0  0  0  0  0  0
    1.3387   -0.3439    0.3178 C   0  0  0  0  0  0  0  0  0  0  0  0
  1  2  4  0
  2  3  4  0
  3  4  4  0
  4  5  4  0
  5  6  4  0
  6  1  4  0
M  END
$$$$

     RDKit          3D

  6  6  0  0  0  0  0  0  0  0999 V2000
    0.5971    1.1088   -0.7388 N   0  0  0  0  0  0  0  0  0  0  0  0
   -0.7319    1.0399   -0.7764 N   0  0  0  0  0  0  0  0  0  0  0  0
   -1.3935    0.0335   -0.1497 C   0  0  0  0  0  0  0  0  0  0  0  0
   -0.6703   -0.8775    0.5521 N   0  0  0  0  0  0  0  0  0  0  0  0
    0.6601   -0.8093    0.5916 N   0  0  0  0  0  0  0  0  0  0  0  0
    1.3193    0.1735   -0.0708 C   0  0  0  0  0  0  0  0  0  0  0  0
  1  2  4  0
  2  3  4  0
  3  4  4  0
  4  5  4  0
  5  6  4  0
  6  1  4  0
M  END
$$$$

     RDKit          3D

  6  6  0  0  0  0  0  0  0  0999 V2000
    0.6904    0.4672   -0.5916 N   0  0  0  0  0  0  0  0  0  0  0  0
   -0.6331    0.5693   -0.4737 N   0  0  0  0  0  0  0  0  0  0  0  0
   -1.2991   -0.1548    0.4615 C   0  0  0  0  0  0  0  0  0  0  0  0
   -0.5895   -0.9610    1.2947 N   0  0  0  0  0  0  0  0  0  0  0  0
    0.7329   -1.0633    1.1713 N   0  0  0  0  0  0  0  0  0  0  0  0
    1.3955   -0.3642    0.2168 C   0  0  0  0  0  0  0  0  0  0  0  0
  1  2  4  0
  2  3  4  0
  3  4  4  0
  4  5  4  0
  5  6  4  0
  6  1  4  0
M  END
$$$$

     RDKit          3D

  6  6  0  0  0  0  0  0  0  0999 V2000
   -0.7572   -1.1866   -0.3147 N   0  0  0  0  0  0  0  0  0  0  0  0
    0.5725   -1.2364   -0.3766 N   0  0  0  0  0  0  0  0  0  0  0  0
    1.3224   -0.1458   -0.0703 C   0  0  0  0  0  0  0  0  0  0  0  0
    0.6871    1.0078    0.2604 N   0  0  0  0  0  0  0  0  0  0  0  0
   -0.6427    1.0577    0.3223 N   0  0  0  0  0  0  0  0  0  0  0  0
   -1.3905   -0.0437    0.0553 C   0  0  0  0  0  0  0  0  0  0  0  0
  1  2  4  0
  2  3  4  0
  3  4  4  0
  4  5  4  0
  5  6  4  0
  6  1  4  0
M  END
$$$$

     RDKit          3D

  6  6  0  0  0  0  0  0  0  0999 V2000
    0.6344    0.7655    0.6314 N   0  0  0  0  0  0  0  0  0  0  0  0
   -0.6921    0.7208    0.5260 N   0  0  0  0  0  0  0  0  0  0  0  0
   -1.3012   -0.3242   -0.0923 C   0  0  0  0  0  0  0  0  0  0  0  0
   -0.5342   -1.3387   -0.5710 N   0  0  0  0  0  0  0  0  0  0  0  0
    0.7923   -1.2923   -0.4651 N   0  0  0  0  0  0  0  0  0  0  0  0
    1.4032   -0.2431    0.1457 C   0  0  0  0  0  0  0  0  0  0  0  0
  1  2  4  0
  2  3  4  0
  3  4  4  0
  4  5  4  0
  5  6  4  0
  6  1  4  0
M  END
$$$$

     RDKit          3D

  6  6  0  0  0  0  0  0  0  0999 V2000
   -0.7638   -0.1428    0.8317 N   0  0  0  0  0  0  0  0  0  0  0  0
    0.5534   -0.2741    0.9797 N   0  0  0  0  0  0  0  0  0  0  0  0
    1.3602   -0.4316   -0.1003 C   0  0  0  0  0  0  0  0  0  0  0  0
    0.7977   -0.4261   -1.3372 N   0  0  0  0  0  0  0  0  0  0  0  0
   -0.5192   -0.2926   -1.4853 N   0  0  0  0  0  0  0  0  0  0  0  0
   -1.3248   -0.1412   -0.4038 C   0  0  0  0  0  0  0  0  0  0  0  0
  1  2  4  0
  2  3  4  0
  3  4  4  0
  4  5  4  0
  5  6  4  0
  6  1  4  0
M  END
$$$$

     RDKit          3D

  6  6  0  0  0  0  0  0  0  0999 V2000
    0.9218   -0.2894   -0.9909 N   0  0  0  0  0  0  0  0  0  0  0  0
   -0.3714   -0.5423   -1.1879 N   0  0  0  0  0  0  0  0  0  0  0  0
   -1.2889   -0.2206   -0.2440 C   0  0  0  0  0  0  0  0  0  0  0  0
   -0.8691    0.3843    0.8960 N   0  0  0  0  0  0  0  0  0  0  0  0
    0.4243    0.6356    1.0931 N   0  0  0  0  0  0  0  0  0  0  0  0
    1.3436    0.3147    0.1495 C   0  0  0  0  0  0  0  0  0  0  0  0
  1  2  4  0
  2  3  4  0
  3  4  4  0
  4  5  4  0
  5  6  4  0
  6  1  4  0
M  END
$$$$

     RDKit          3D

  6  6  0  0  0  0  0  0  0  0999 V2000
   -0.8488    0.7078   -0.5830 N   0  0  0  0  0  0  0  0  0  0  0  0
    0.4607    0.9507   -0.5656 N   0  0  0  0  0  0  0  0  0  0  0  0
    1.2915    0.2132    0.2125 C   0  0  0  0  0  0  0  0  0  0  0  0
    0.7642   -0.7947    0.9543 N   0  0  0  0  0  0  0  0  0  0  0  0
   -0.5449   -1.0389    0.9363 N   0  0  0  0  0  0  0  0  0  0  0  0
   -1.3765   -0.2977    0.1614 C   0  0  0  0  0  0  0  0  0  0  0  0
  1  2  4  0
  2  3  4  0
  3  4  4  0
  4  5  4  0
  5  6  4  0
  6  1  4  0
M  END
$$$$

     RDKit          3D

  6  6  0  0  0  0  0  0  0  0999 V2000
    0.4443   -0.9722    0.9790 N   0  0  0  0  0  0  0  0  0  0  0  0
   -0.8779   -0.8680    0.8612 N   0  0  0  0  0  0  0  0  0  0  0  0
   -1.4299    0.0677    0.0474 C   0  0  0  0  0  0  0  0  0  0  0  0
   -0.6049    0.8858   -0.6576 N   0  0  0  0  0  0  0  0  0  0  0  0
    0.7184    0.7823   -0.5402 N   0  0  0  0  0  0  0  0  0  0  0  0
    1.2676   -0.1575    0.2725 C   0  0  0  0  0  0  0  0  0  0  0  0
  1  2  4  0
  2  3  4  0
  3  4  4  0
  4  5  4  0
  5  6  4  0
  6  1  4  0
M  END
$$$$

     RDKit          3D

  4  3  0  0  0  0  0  0  0  0999 V2000
   -0.0129    0.2146   -1.7703 F   0  0  0  0  0  0  0  0  0  0  0  0
   -0.4463    0.0408   -0.4938 C   0  0  0  0  0  0  0  0  0  0  0  0
    0.4459   -0.0056    0.5128 C   0  0  0  0  0  0  0  0  0  0  0  0
    0.0150    0.0252    1.8012 F   0  0  0  0  0  0  0  0  0  0  0  0
  1  2  1  0
  2  3  2  0
  3  4  1  0
M  END
$$$$

     RDKit          3D

  4  3  0  0  0  0  0  0  0  0999 V2000
    0.0287   -1.4135   -1.2484 F   0  0  0  0  0  0  0  0  0  0  0  0
   -0.4346   -0.4139   -0.4524 C   0  0  0  0  0  0  0  0  0  0  0  0
    0.4372    0.4029    0.1675 C   0  0  0  0  0  0  0  0  0  0  0  0
   -0.0044    1.2687    1.1173 F   0  0  0  0  0  0  0  0  0  0  0  0
  1  2  1  0
  2  3  2  0
  3  4  1  0
M  END
$$$$

     RDKit          3D

  4  3  0  0  0  0  0  0  0  0999 V2000
   -0.0835   -1.4004    1.0985 F   0  0  0  0  0  0  0  0  0  0  0  0
   -0.4658   -0.3713    0.2970 C   0  0  0  0  0  0  0  0  0  0  0  0
    0.4684    0.4070   -0.2798 C   0  0  0  0  0  0  0  0  0  0  0  0
    0.0993    1.5516   -0.9127 F   0  0  0  0  0  0  0  0  0  0  0  0
  1  2  1  0
  2  3  2  0
  3  4  1  0
M  END
$$$$

     RDKit          3D

  4  3  0  0  0  0  0  0  0  0999 V2000
   -0.0767    1.6247   -0.4890 F   0  0  0  0  0  0  0  0  0  0  0  0
    0.4189    0.4886    0.0689 C   0  0  0  0  0  0  0  0  0  0  0  0
   -0.4145   -0.5237    0.3722 C   0  0  0  0  0  0  0  0  0  0  0  0
    0.0916   -1.7306    0.7380 F   0  0  0  0  0  0  0  0  0  0  0  0
  1  2  1  0
  2  3  2  0
  3  4  1  0
M  END
$$$$

     RDKit          3D

  4  3  0  0  0  0  0  0  0  0999 V2000
    0.0756    0.2953    1.7635 F   0  0  0  0  0  0  0  0  0  0  0  0
   -0.4200    0.0635    0.5192 C   0  0  0  0  0  0  0  0  0  0  0  0
    0.4220   -0.0333   -0.5263 C   0  0  0  0  0  0  0  0  0  0  0  0
   -0.0712   -0.0615   -1.7922 F   0  0  0  0  0  0  0  0  0  0  0  0
  1  2  1  0
  2  3  2  0
  3  4  1  0
M  END
$$$$

     RDKit          3D

  4  3  0  0  0  0  0  0  0  0999 V2000
    0.0967    0.1451    1.7551 F   0  0  0  0  0  0  0  0  0  0  0  0
   -0.4142    0.0190    0.5017 C   0  0  0  0  0  0  0  0  0  0  0  0
    0.4189   -0.0178   -0.5536 C   0  0  0  0  0  0  0  0  0  0  0  0
   -0.0757    0.0838   -1.8151 F   0  0  0  0  0  0  0  0  0  0  0  0
  1  2  1  0
  2  3  2  0
  3  4  1  0
M  END
$$$$

     RDKit          3D

  4  3  0  0  0  0  0  0  0  0999 V2000
   -0.0926    1.5478    0.8934 F   0  0  0  0  0  0  0  0  0  0  0  0
    0.4137    0.4358    0.2985 C   0  0  0  0  0  0  0  0  0  0  0  0
   -0.4124   -0.4389   -0.3052 C   0  0  0  0  0  0  0  0  0  0  0  0
    0.0884   -1.5593   -0.8880 F   0  0  0  0  0  0  0  0  0  0  0  0
  1  2  1  0
  2  3  2  0
  3  4  1  0
M  END
$$$$

     RDKit          3D

  4  3  0  0  0  0  0  0  0  0999 V2000
    0.0084    1.2948    1.1796 F   0  0  0  0  0  0  0  0  0  0  0  0
    0.4444    0.3535    0.3018 C   0  0  0  0  0  0  0  0  0  0  0  0
   -0.4443   -0.3658   -0.4088 C   0  0  0  0  0  0  0  0  0  0  0  0
   -0.0122   -1.2976   -1.2981 F   0  0  0  0  0  0  0  0  0  0  0  0
  1  2  1  0
  2  3  2  0
  3  4  1  0
M  END
$$$$

     RDKit          3D

  4  3  0  0  0  0  0  0  0  0999 V2000
   -0.0593    1.7665    0.2818 F   0  0  0  0  0  0  0  0  0  0  0  0
    0.4237    0.4980    0.2066 C   0  0  0  0  0  0  0  0  0  0  0  0
   -0.4281   -0.5263    0.0208 C   0  0  0  0  0  0  0  0  0  0  0  0
    0.0492   -1.7623   -0.2805 F   0  0  0  0  0  0  0  0  0  0  0  0
  1  2  1  0
  2  3  2  0
  3  4  1  0
M  END
$$$$

     RDKit          3D

  4  3  0  0  0  0  0  0  0  0999 V2000
   -0.0348   -1.4119   -1.0560 F   0  0  0  0  0  0  0  0  0  0  0  0
    0.4259   -0.4294   -0.2372 C   0  0  0  0  0  0  0  0  0  0  0  0
   -0.4350    0.4747    0.2635 C   0  0  0  0  0  0  0  0  0  0  0  0
    0.0330    1.5843    0.8929 F   0  0  0  0  0  0  0  0  0  0  0  0
  1  2  1  0
  2  3  2  0
  3  4  1  0
M  END
$$$$

     RDKit          3D

  4  3  0  0  0  0  0  0  0  0999 V2000
    1.0721   -3.2248   -1.9774 F   0  0  0  0  0  0  0  0  0  0  0  0
    0.5026   -2.1712   -1.3379 C   0  0  0  0  0  0  0  0  0  0  0  0
   -0.8043   -1.9318   -1.5477 C   0  0  0  0  0  0  0  0  0  0  0  0
   -1.5064   -2.8191   -2.2981 F   0  0  0  0  0  0  0  0  0  0  0  0
  1  2  1  0
  2  3  2  0
  3  4  1  0
M  END
$$$$

     RDKit          3D

  4  3  0  0  0  0  0  0  0  0999 V2000
    0.0985   -0.6781    1.4476 F   0  0  0  0  0  0  0  0  0  0  0  0
    0.4610   -0.1138    0.2655 C   0  0  0  0  0  0  0  0  0  0  0  0
   -0.4746    0.1454   -0.6656 C   0  0  0  0  0  0  0  0  0  0  0  0
   -0.1272    0.7063   -1.8528 F   0  0  0  0  0  0  0  0  0  0  0  0
  1  2  1  0
  2  3  2  0
  3  4  1  0
M  END
$$$$

     RDKit          3D

  4  3  0  0  0  0  0  0  0  0999 V2000
   -0.0151   -1.5299    0.8434 F   0  0  0  0  0  0  0  0  0  0  0  0
    0.4357   -0.4228    0.1968 C   0  0  0  0  0  0  0  0  0  0  0  0
   -0.4443    0.4621   -0.3055 C   0  0  0  0  0  0  0  0  0  0  0  0
   -0.0088    1.5746   -0.9515 F   0  0  0  0  0  0  0  0  0  0  0  0
  1  2  1  0
  2  3  2  0
  3  4  1  0
M  END
$$$$

     RDKit          3D

  4  3  0  0  0  0  0  0  0  0999 V2000
   -1.3278    3.3671   -1.5441 F   0  0  0  0  0  0  0  0  0  0  0  0
   -0.6855    2.3117   -0.9814 C   0  0  0  0  0  0  0  0  0  0  0  0
    0.6458    2.3968   -0.8107 C   0  0  0  0  0  0  0  0  0  0  0  0
    1.2585    3.5740   -1.0963 F   0  0  0  0  0  0  0  0  0  0  0  0
  1  2  1  0
  2  3  2  0
  3  4  1  0
M  END
$$$$

     RDKit          3D

  7  7  0  0  0  0  0  0  0  0999 V2000
    1.3845   -2.0524    1.3156 F   0  0  0  0  0  0  0  0  0  0  0  0
    0.7102   -1.0307    0.7290 C   0  0  0  0  0  0  0  0  0  0  0  0
   -0.6829   -0.9822    0.8401 C   0  0  0  0  0  0  0  0  0  0  0  0
   -1.4133    0.0425    0.2162 C   0  0  0  0  0  0  0  0  0  0  0  0
   -0.7268    1.0181   -0.5244 C   0  0  0  0  0  0  0  0  0  0  0  0
    0.6652    0.9716   -0.6369 C   0  0  0  0  0  0  0  0  0  0  0  0
    1.3962   -0.0495   -0.0092 C   0  0  0  0  0  0  0  0  0  0  0  0
  1  2  1  0
  2  3  4  0
  3  4  4  0
  4  5  4  0
  5  6  4  0
  6  7  4  0
  7  2  4  0
M  END
$$$$

     RDKit          3D

  7  7  0  0  0  0  0  0  0  0999 V2000
   -1.6284   -1.7346    1.3857 F   0  0  0  0  0  0  0  0  0  0  0  0
   -0.8305   -0.8850    0.6898 C   0  0  0  0  0  0  0  0  0  0  0  0
    0.5430   -0.8726    0.9522 C   0  0  0  0  0  0  0  0  0  0  0  0
    1.3910    0.0183    0.2741 C   0  0  0  0  0  0  0  0  0  0  0  0
    0.8417    0.9002   -0.6704 C   0  0  0  0  0  0  0  0  0  0  0  0
   -0.5304    0.8897   -0.9342 C   0  0  0  0  0  0  0  0  0  0  0  0
   -1.3779   -0.0041   -0.2604 C   0  0  0  0  0  0  0  0  0  0  0  0
  1  2  1  0
  2  3  4  0
  3  4  4  0
  4  5  4  0
  5  6  4  0
  6  7  4  0
  7  2  4  0
M  END
$$$$

     RDKit          3D

  7  7  0  0  0  0  0  0  0  0999 V2000
   -1.2074   -1.1957   -2.3207 F   0  0  0  0  0  0  0  0  0  0  0  0
   -0.6182   -0.6163   -1.2438 C   0  0  0  0  0  0  0  0  0  0  0  0
    0.7689   -0.4397   -1.2399 C   0  0  0  0  0  0  0  0  0  0  0  0
    1.4054    0.1872   -0.1561 C   0  0  0  0  0  0  0  0  0  0  0  0
    0.6303    0.6380    0.9244 C   0  0  0  0  0  0  0  0  0  0  0  0
   -0.7559    0.4628    0.9227 C   0  0  0  0  0  0  0  0  0  0  0  0
   -1.3921   -0.1684   -0.1580 C   0  0  0  0  0  0  0  0  0  0  0  0
  1  2  1  0
  2  3  4  0
  3  4  4  0
  4  5  4  0
  5  6  4  0
  6  7  4  0
  7  2  4  0
M  END
$$$$

     RDKit          3D

  7  7  0  0  0  0  0  0  0  0999 V2000
   -1.4988   -1.3151   -1.8986 F   0  0  0  0  0  0  0  0  0  0  0  0
   -0.7666   -0.6744   -0.9520 C   0  0  0  0  0  0  0  0  0  0  0  0
    0.6288   -0.6962   -1.0406 C   0  0  0  0  0  0  0  0  0  0  0  0
    1.4145   -0.0147   -0.0967 C   0  0  0  0  0  0  0  0  0  0  0  0
    0.7807    0.6925    0.9376 C   0  0  0  0  0  0  0  0  0  0  0  0
   -0.6134    0.7157    1.0282 C   0  0  0  0  0  0  0  0  0  0  0  0
   -1.3992    0.0305    0.0879 C   0  0  0  0  0  0  0  0  0  0  0  0
  1  2  1  0
  2  3  4  0
  3  4  4  0
  4  5  4  0
  5  6  4  0
  6  7  4  0
  7  2  4  0
M  END
$$$$

     RDKit          3D

  7  7  0  0  0  0  0  0  0  0999 V2000
   -1.3658    1.5977   -1.7091 F   0  0  0  0  0  0  0  0  0  0  0  0
   -0.6996    0.8240   -0.8146 C   0  0  0  0  0  0  0  0  0  0  0  0
    0.6987    0.8207   -0.8260 C   0  0  0  0  0  0  0  0  0  0  0  0
    1.4177    0.0055    0.0634 C   0  0  0  0  0  0  0  0  0  0  0  0
    0.7142   -0.8100    0.9644 C   0  0  0  0  0  0  0  0  0  0  0  0
   -0.6830   -0.8084    0.9776 C   0  0  0  0  0  0  0  0  0  0  0  0
   -1.4022    0.0100    0.0921 C   0  0  0  0  0  0  0  0  0  0  0  0
  1  2  1  0
  2  3  4  0
  3  4  4  0
  4  5  4  0
  5  6  4  0
  6  7  4  0
  7  2  4  0
M  END
$$$$

     RDKit          3D

  7  7  0  0  0  0  0  0  0  0999 V2000
    1.2575   -2.4522    0.1687 F   0  0  0  0  0  0  0  0  0  0  0  0
    0.6438   -1.2455    0.0697 C   0  0  0  0  0  0  0  0  0  0  0  0
   -0.7512   -1.1833    0.1445 C   0  0  0  0  0  0  0  0  0  0  0  0
   -1.4149    0.0528    0.0799 C   0  0  0  0  0  0  0  0  0  0  0  0
   -0.6592    1.2282   -0.0582 C   0  0  0  0  0  0  0  0  0  0  0  0
    0.7347    1.1686   -0.1331 C   0  0  0  0  0  0  0  0  0  0  0  0
    1.3984   -0.0672   -0.0736 C   0  0  0  0  0  0  0  0  0  0  0  0
  1  2  1  0
  2  3  4  0
  3  4  4  0
  4  5  4  0
  5  6  4  0
  6  7  4  0
  7  2  4  0
M  END
$$$$

     RDKit          3D

  7  7  0  0  0  0  0  0  0  0999 V2000
   -1.3758    2.1554   -1.1633 F   0  0  0  0  0  0  0  0  0  0  0  0
   -0.7058    1.0845   -0.6665 C   0  0  0  0  0  0  0  0  0  0  0  0
    0.6906    1.0622   -0.7381 C   0  0  0  0  0  0  0  0  0  0  0  0
    1.4154   -0.0151   -0.2028 C   0  0  0  0  0  0  0  0  0  0  0  0
    0.7200   -1.0705    0.4089 C   0  0  0  0  0  0  0  0  0  0  0  0
   -0.6752   -1.0504    0.4818 C   0  0  0  0  0  0  0  0  0  0  0  0
   -1.4006    0.0239   -0.0576 C   0  0  0  0  0  0  0  0  0  0  0  0
  1  2  1  0
  2  3  4  0
  3  4  4  0
  4  5  4  0
  5  6  4  0
  6  7  4  0
  7  2  4  0
M  END
$$$$

     RDKit          3D

  7  7  0  0  0  0  0  0  0  0999 V2000
    1.4535    0.3308    2.5689 F   0  0  0  0  0  0  0  0  0  0  0  0
    0.7439    0.1862    1.4208 C   0  0  0  0  0  0  0  0  0  0  0  0
   -0.6530    0.1675    1.4819 C   0  0  0  0  0  0  0  0  0  0  0  0
   -1.4159   -0.0147    0.3168 C   0  0  0  0  0  0  0  0  0  0  0  0
   -0.7578   -0.1810   -0.9124 C   0  0  0  0  0  0  0  0  0  0  0  0
    0.6379   -0.1627   -0.9759 C   0  0  0  0  0  0  0  0  0  0  0  0
    1.4009    0.0244    0.1877 C   0  0  0  0  0  0  0  0  0  0  0  0
  1  2  1  0
  2  3  4  0
  3  4  4  0
  4  5  4  0
  5  6  4  0
  6  7  4  0
  7  2  4  0
M  END
$$$$
