
     RDKit          3D

  3  2  0  0  0  0  0  0  0  0999 V2000
    0.4945   -1.1290    1.7999 Cl  0  0  0  0  0  0  0  0  0  0  0  0
   -0.3420   -0.3265    0.4751 C   0  0  0  0  0  0  0  0  0  0  0  0
    0.3016    0.4443   -0.4070 C   0  0  0  0  0  0  0  0  0  0  0  0
  1  2  1  0
  2  3  2  0
M  END
$$$$

     RDKit          3D

  3  2  0  0  0  0  0  0  0  0999 V2000
   -0.3855   -1.5232    1.6924 Cl  0  0  0  0  0  0  0  0  0  0  0  0
   -0.5310   -0.1937    0.5478 C   0  0  0  0  0  0  0  0  0  0  0  0
    0.5041    0.2272   -0.1857 C   0  0  0  0  0  0  0  0  0  0  0  0
  1  2  1  0
  2  3  2  0
M  END
$$$$

     RDKit          3D

  3  2  0  0  0  0  0  0  0  0999 V2000
    0.9423    1.8834    0.8064 Cl  0  0  0  0  0  0  0  0  0  0  0  0
   -0.1851    0.6674    0.2155 C   0  0  0  0  0  0  0  0  0  0  0  0
    0.1575   -0.6190    0.0961 C   0  0  0  0  0  0  0  0  0  0  0  0
  1  2  1  0
  2  3  2  0
M  END
$$$$

     RDKit          3D

  3  2  0  0  0  0  0  0  0  0999 V2000
   -0.3960    0.3738   -2.0384 Cl  0  0  0  0  0  0  0  0  0  0  0  0
    0.3487   -0.0538   -0.5016 C   0  0  0  0  0  0  0  0  0  0  0  0
   -0.3121    0.0378    0.6566 C   0  0  0  0  0  0  0  0  0  0  0  0
  1  2  1  0
  2  3  2  0
M  END
$$$$

     RDKit          3D

  3  2  0  0  0  0  0  0  0  0999 V2000
   -0.6669   -3.5787   -1.1549 Cl  0  0  0  0  0  0  0  0  0  0  0  0
   -0.1814   -1.9798   -0.6226 C   0  0  0  0  0  0  0  0  0  0  0  0
    1.1028   -1.7432   -0.3343 C   0  0  0  0  0  0  0  0  0  0  0  0
  1  2  1  0
  2  3  2  0
M  END
$$$$

     RDKit          3D

  3  2  0  0  0  0  0  0  0  0999 V2000
   -1.1952   -3.0201   -1.7494 Cl  0  0  0  0  0  0  0  0  0  0  0  0
   -0.4918   -1.7169   -0.8103 C   0  0  0  0  0  0  0  0  0  0  0  0
    0.7470   -1.8494   -0.3241 C   0  0  0  0  0  0  0  0  0  0  0  0
  1  2  1  0
  2  3  2  0
M  END
$$$$

     RDKit          3D

  3  2  0  0  0  0  0  0  0  0999 V2000
    1.1848   -0.4370   -3.3993 Cl  0  0  0  0  0  0  0  0  0  0  0  0
    0.4773   -0.3047   -1.8001 C   0  0  0  0  0  0  0  0  0  0  0  0
   -0.7831   -0.7056   -1.6022 C   0  0  0  0  0  0  0  0  0  0  0  0
  1  2  1  0
  2  3  2  0
M  END
$$$$

     RDKit          3D

  9  9  0  0  0  0  0  0  0  0999 V2000
   -0.8766    2.6922    0.7288 C   0  0  0  0  0  0  0  0  0  0  0  0
   -0.2463    1.4099    0.2462 C   0  0  0  0  0  0  0  0  0  0  0  0
    1.1413    1.3497    0.0942 C   0  0  0  0  0  0  0  0  0  0  0  0
    1.7669    0.1905   -0.3713 C   0  0  0  0  0  0  0  0  0  0  0  0
    0.9942   -0.9464   -0.7093 C   0  0  0  0  0  0  0  0  0  0  0  0
    1.6618   -2.1825   -1.2778 C   0  0  0  0  0  0  0  0  0  0  0  0
   -0.4080   -0.9286   -0.4785 C   0  0  0  0  0  0  0  0  0  0  0  0
   -1.2416   -2.1639   -0.7602 C   0  0  0  0  0  0  0  0  0  0  0  0
   -1.0291    0.2682   -0.0328 C   0  0  0  0  0  0  0  0  0  0  0  0
  1  2  1  0
  2  3  4  0
  3  4  4  0
  4  5  4  0
  5  6  1  0
  5  7  4  0
  7  8  1  0
  7  9  4  0
  9  2  4  0
M  END
$$$$

     RDKit          3D

  9  9  0  0  0  0  0  0  0  0999 V2000
   -1.2232    2.6464    0.0078 C   0  0  0  0  0  0  0  0  0  0  0  0
   -0.4402    1.3754   -0.2078 C   0  0  0  0  0  0  0  0  0  0  0  0
    0.9460    1.4493   -0.3655 C   0  0  0  0  0  0  0  0  0  0  0  0
    1.7094    0.3007   -0.5896 C   0  0  0  0  0  0  0  0  0  0  0  0
    1.0794   -0.9639   -0.6800 C   0  0  0  0  0  0  0  0  0  0  0  0
    1.8929   -2.2019   -0.9999 C   0  0  0  0  0  0  0  0  0  0  0  0
   -0.3171   -1.0644   -0.4362 C   0  0  0  0  0  0  0  0  0  0  0  0
   -1.0003   -2.4184   -0.4555 C   0  0  0  0  0  0  0  0  0  0  0  0
   -1.0781    0.1160   -0.2274 C   0  0  0  0  0  0  0  0  0  0  0  0
  1  2  1  0
  2  3  4  0
  3  4  4  0
  4  5  4  0
  5  6  1  0
  5  7  4  0
  7  8  1  0
  7  9  4  0
  9  2  4  0
M  END
$$$$

     RDKit          3D

  9  9  0  0  0  0  0  0  0  0999 V2000
   -0.9468   -1.2346    2.3308 C   0  0  0  0  0  0  0  0  0  0  0  0
   -0.2879   -0.5054    1.1868 C   0  0  0  0  0  0  0  0  0  0  0  0
    1.0962   -0.3166    1.2081 C   0  0  0  0  0  0  0  0  0  0  0  0
    1.7547    0.3226    0.1539 C   0  0  0  0  0  0  0  0  0  0  0  0
    1.0195    0.7899   -0.9618 C   0  0  0  0  0  0  0  0  0  0  0  0
    1.7403    1.4202   -2.1364 C   0  0  0  0  0  0  0  0  0  0  0  0
   -0.3982    0.6898   -0.9531 C   0  0  0  0  0  0  0  0  0  0  0  0
   -1.2112    1.2581   -2.1002 C   0  0  0  0  0  0  0  0  0  0  0  0
   -1.0453    0.0096    0.1122 C   0  0  0  0  0  0  0  0  0  0  0  0
  1  2  1  0
  2  3  4  0
  3  4  4  0
  4  5  4  0
  5  6  1  0
  5  7  4  0
  7  8  1  0
  7  9  4  0
  9  2  4  0
M  END
$$$$

     RDKit          3D

  9  9  0  0  0  0  0  0  0  0999 V2000
    0.9499   -0.1953    2.5634 C   0  0  0  0  0  0  0  0  0  0  0  0
    0.2972   -0.2960    1.2075 C   0  0  0  0  0  0  0  0  0  0  0  0
   -1.0912   -0.4281    1.1277 C   0  0  0  0  0  0  0  0  0  0  0  0
   -1.7405   -0.4984   -0.1079 C   0  0  0  0  0  0  0  0  0  0  0  0
   -0.9914   -0.4340   -1.3074 C   0  0  0  0  0  0  0  0  0  0  0  0
   -1.6997   -0.4452   -2.6472 C   0  0  0  0  0  0  0  0  0  0  0  0
    0.4277   -0.3872   -1.2408 C   0  0  0  0  0  0  0  0  0  0  0  0
    1.2507   -0.3786   -2.5146 C   0  0  0  0  0  0  0  0  0  0  0  0
    1.0652   -0.2764    0.0234 C   0  0  0  0  0  0  0  0  0  0  0  0
  1  2  1  0
  2  3  4  0
  3  4  4  0
  4  5  4  0
  5  6  1  0
  5  7  4  0
  7  8  1  0
  7  9  4  0
  9  2  4  0
M  END
$$$$

     RDKit          3D

  9  9  0  0  0  0  0  0  0  0999 V2000
    0.9207   -2.2296   -1.2797 C   0  0  0  0  0  0  0  0  0  0  0  0
    0.2701   -1.0181   -0.6605 C   0  0  0  0  0  0  0  0  0  0  0  0
   -1.1208   -0.8951   -0.7029 C   0  0  0  0  0  0  0  0  0  0  0  0
   -1.7674    0.1999   -0.1231 C   0  0  0  0  0  0  0  0  0  0  0  0
   -1.0131    1.2048    0.5290 C   0  0  0  0  0  0  0  0  0  0  0  0
   -1.7176    2.3570    1.2167 C   0  0  0  0  0  0  0  0  0  0  0  0
    0.4066    1.1367    0.5051 C   0  0  0  0  0  0  0  0  0  0  0  0
    1.2320    2.2379    1.1427 C   0  0  0  0  0  0  0  0  0  0  0  0
    1.0430    0.0024   -0.0647 C   0  0  0  0  0  0  0  0  0  0  0  0
  1  2  1  0
  2  3  4  0
  3  4  4  0
  4  5  4  0
  5  6  1  0
  5  7  4  0
  7  8  1  0
  7  9  4  0
  9  2  4  0
M  END
$$$$

     RDKit          3D

  9  9  0  0  0  0  0  0  0  0999 V2000
    0.9095   -2.1333    1.3713 C   0  0  0  0  0  0  0  0  0  0  0  0
    0.2633   -0.9667    0.6670 C   0  0  0  0  0  0  0  0  0  0  0  0
   -1.1289   -0.8509    0.6765 C   0  0  0  0  0  0  0  0  0  0  0  0
   -1.7710    0.2002    0.0163 C   0  0  0  0  0  0  0  0  0  0  0  0
   -1.0109    1.1666   -0.6855 C   0  0  0  0  0  0  0  0  0  0  0  0
   -1.7095    2.2693   -1.4557 C   0  0  0  0  0  0  0  0  0  0  0  0
    0.4086    1.1080   -0.6349 C   0  0  0  0  0  0  0  0  0  0  0  0
    1.2393    2.1695   -1.3302 C   0  0  0  0  0  0  0  0  0  0  0  0
    1.0408    0.0163    0.0167 C   0  0  0  0  0  0  0  0  0  0  0  0
  1  2  1  0
  2  3  4  0
  3  4  4  0
  4  5  4  0
  5  6  1  0
  5  7  4  0
  7  8  1  0
  7  9  4  0
  9  2  4  0
M  END
$$$$

     RDKit          3D

  9  9  0  0  0  0  0  0  0  0999 V2000
   -1.1864   -0.2331   -2.7510 C   0  0  0  0  0  0  0  0  0  0  0  0
   -0.4103   -0.0223   -1.4754 C   0  0  0  0  0  0  0  0  0  0  0  0
    0.9711    0.1753   -1.5438 C   0  0  0  0  0  0  0  0  0  0  0  0
    1.7288    0.3899   -0.3895 C   0  0  0  0  0  0  0  0  0  0  0  0
    1.0978    0.4211    0.8778 C   0  0  0  0  0  0  0  0  0  0  0  0
    1.8997    0.7267    2.1272 C   0  0  0  0  0  0  0  0  0  0  0  0
   -0.2933    0.1429    0.9698 C   0  0  0  0  0  0  0  0  0  0  0  0
   -0.9815    0.1289    2.3217 C   0  0  0  0  0  0  0  0  0  0  0  0
   -1.0503   -0.0438   -0.2176 C   0  0  0  0  0  0  0  0  0  0  0  0
  1  2  1  0
  2  3  4  0
  3  4  4  0
  4  5  4  0
  5  6  1  0
  5  7  4  0
  7  8  1  0
  7  9  4  0
  9  2  4  0
M  END
$$$$

     RDKit          3D

  9  9  0  0  0  0  0  0  0  0999 V2000
   -1.2412    1.3721   -2.3351 C   0  0  0  0  0  0  0  0  0  0  0  0
   -0.4319    0.8911   -1.1568 C   0  0  0  0  0  0  0  0  0  0  0  0
    0.9621    0.9673   -1.2122 C   0  0  0  0  0  0  0  0  0  0  0  0
    1.7516    0.5327   -0.1442 C   0  0  0  0  0  0  0  0  0  0  0  0
    1.1424    0.0221    1.0275 C   0  0  0  0  0  0  0  0  0  0  0  0
    1.9900   -0.3763    2.2191 C   0  0  0  0  0  0  0  0  0  0  0  0
   -0.2693   -0.1349    1.0659 C   0  0  0  0  0  0  0  0  0  0  0  0
   -0.9396   -0.7365    2.2858 C   0  0  0  0  0  0  0  0  0  0  0  0
   -1.0552    0.3302   -0.0207 C   0  0  0  0  0  0  0  0  0  0  0  0
  1  2  1  0
  2  3  4  0
  3  4  4  0
  4  5  4  0
  5  6  1  0
  5  7  4  0
  7  8  1  0
  7  9  4  0
  9  2  4  0
M  END
$$$$

     RDKit          3D

  9  9  0  0  0  0  0  0  0  0999 V2000
   -0.8280    2.3914    1.0766 C   0  0  0  0  0  0  0  0  0  0  0  0
   -0.2317    1.2361    0.3125 C   0  0  0  0  0  0  0  0  0  0  0  0
    1.1560    1.1590    0.1703 C   0  0  0  0  0  0  0  0  0  0  0  0
    1.7553    0.0887   -0.4994 C   0  0  0  0  0  0  0  0  0  0  0  0
    0.9549   -0.9403   -1.0509 C   0  0  0  0  0  0  0  0  0  0  0  0
    1.6067   -2.1331   -1.7209 C   0  0  0  0  0  0  0  0  0  0  0  0
   -0.4607   -0.8262   -0.9967 C   0  0  0  0  0  0  0  0  0  0  0  0
   -1.3361   -1.8758   -1.6539 C   0  0  0  0  0  0  0  0  0  0  0  0
   -1.0492    0.2473   -0.2772 C   0  0  0  0  0  0  0  0  0  0  0  0
  1  2  1  0
  2  3  4  0
  3  4  4  0
  4  5  4  0
  5  6  1  0
  5  7  4  0
  7  8  1  0
  7  9  4  0
  9  2  4  0
M  END
$$$$

     RDKit          3D

  6  6  0  0  0  0  0  0  0  0999 V2000
   -1.4063    0.0466    0.0260 C   0  0  0  0  0  0  0  0  0  0  0  0
   -0.7070    1.0366    0.7355 C   0  0  0  0  0  0  0  0  0  0  0  0
    0.6868    0.9901    0.8278 C   0  0  0  0  0  0  0  0  0  0  0  0
    1.4063   -0.0466    0.2112 C   0  0  0  0  0  0  0  0  0  0  0  0
    0.7070   -1.0361   -0.4990 C   0  0  0  0  0  0  0  0  0  0  0  0
   -0.6869   -0.9903   -0.5902 C   0  0  0  0  0  0  0  0  0  0  0  0
  1  2  4  0
  2  3  4  0
  3  4  4  0
  4  5  4  0
  5  6  4  0
  6  1  4  0
M  END
$$$$

     RDKit          3D

  6  6  0  0  0  0  0  0  0  0999 V2000
    1.4060   -0.0785   -0.2807 C   0  0  0  0  0  0  0  0  0  0  0  0
    0.6494   -1.2009    0.0935 C   0  0  0  0  0  0  0  0  0  0  0  0
   -0.7442   -1.1230    0.1660 C   0  0  0  0  0  0  0  0  0  0  0  0
   -1.4060    0.0785   -0.1357 C   0  0  0  0  0  0  0  0  0  0  0  0
   -0.6494    1.2008   -0.5104 C   0  0  0  0  0  0  0  0  0  0  0  0
    0.7443    1.1232   -0.5816 C   0  0  0  0  0  0  0  0  0  0  0  0
  1  2  4  0
  2  3  4  0
  3  4  4  0
  4  5  4  0
  5  6  4  0
  6  1  4  0
M  END
$$$$

     RDKit          3D

  6  6  0  0  0  0  0  0  0  0999 V2000
   -1.4074   -0.0863    0.0069 C   0  0  0  0  0  0  0  0  0  0  0  0
   -0.7724    1.1587    0.1462 C   0  0  0  0  0  0  0  0  0  0  0  0
    0.6218    1.2498    0.1123 C   0  0  0  0  0  0  0  0  0  0  0  0
    1.4060    0.0977   -0.0614 C   0  0  0  0  0  0  0  0  0  0  0  0
    0.7709   -1.1473   -0.2008 C   0  0  0  0  0  0  0  0  0  0  0  0
   -0.6233   -1.2384   -0.1669 C   0  0  0  0  0  0  0  0  0  0  0  0
  1  2  4  0
  2  3  4  0
  3  4  4  0
  4  5  4  0
  5  6  4  0
  6  1  4  0
M  END
$$$$

     RDKit          3D

  6  6  0  0  0  0  0  0  0  0999 V2000
   -1.4088    0.0655    0.0736 C   0  0  0  0  0  0  0  0  0  0  0  0
   -0.6389    1.2065   -0.2050 C   0  0  0  0  0  0  0  0  0  0  0  0
    0.7571    1.1387   -0.1933 C   0  0  0  0  0  0  0  0  0  0  0  0
    1.4080   -0.0715    0.0970 C   0  0  0  0  0  0  0  0  0  0  0  0
    0.6380   -1.2126    0.3757 C   0  0  0  0  0  0  0  0  0  0  0  0
   -0.7580   -1.1447    0.3640 C   0  0  0  0  0  0  0  0  0  0  0  0
  1  2  4  0
  2  3  4  0
  3  4  4  0
  4  5  4  0
  5  6  4  0
  6  1  4  0
M  END
$$$$

     RDKit          3D

  6  6  0  0  0  0  0  0  0  0999 V2000
    1.4095    0.0286   -0.1134 C   0  0  0  0  0  0  0  0  0  0  0  0
    0.7088    0.2191    1.0888 C   0  0  0  0  0  0  0  0  0  0  0  0
   -0.6884    0.1861    1.1065 C   0  0  0  0  0  0  0  0  0  0  0  0
   -1.4097   -0.0382   -0.0775 C   0  0  0  0  0  0  0  0  0  0  0  0
   -0.7089   -0.2286   -1.2797 C   0  0  0  0  0  0  0  0  0  0  0  0
    0.6882   -0.1956   -1.2974 C   0  0  0  0  0  0  0  0  0  0  0  0
  1  2  4  0
  2  3  4  0
  3  4  4  0
  4  5  4  0
  5  6  4  0
  6  1  4  0
M  END
$$$$

     RDKit          3D

  6  6  0  0  0  0  0  0  0  0999 V2000
   -1.4045   -0.0013    0.1501 C   0  0  0  0  0  0  0  0  0  0  0  0
   -0.7434   -1.0501   -0.5099 C   0  0  0  0  0  0  0  0  0  0  0  0
    0.6486   -1.0421   -0.6345 C   0  0  0  0  0  0  0  0  0  0  0  0
    1.4044    0.0148   -0.1015 C   0  0  0  0  0  0  0  0  0  0  0  0
    0.7434    1.0636    0.5586 C   0  0  0  0  0  0  0  0  0  0  0  0
   -0.6487    1.0556    0.6832 C   0  0  0  0  0  0  0  0  0  0  0  0
  1  2  4  0
  2  3  4  0
  3  4  4  0
  4  5  4  0
  5  6  4  0
  6  1  4  0
M  END
$$$$

     RDKit          3D

  6  6  0  0  0  0  0  0  0  0999 V2000
    1.4063    0.1056   -0.0149 C   0  0  0  0  0  0  0  0  0  0  0  0
    0.7736   -0.9174    0.7101 C   0  0  0  0  0  0  0  0  0  0  0  0
   -0.6205   -1.0155    0.7264 C   0  0  0  0  0  0  0  0  0  0  0  0
   -1.4068   -0.0915    0.0189 C   0  0  0  0  0  0  0  0  0  0  0  0
   -0.7741    0.9319   -0.7055 C   0  0  0  0  0  0  0  0  0  0  0  0
    0.6200    1.0292   -0.7228 C   0  0  0  0  0  0  0  0  0  0  0  0
  1  2  4  0
  2  3  4  0
  3  4  4  0
  4  5  4  0
  5  6  4  0
  6  1  4  0
M  END
$$$$

     RDKit          3D

  6  6  0  0  0  0  0  0  0  0999 V2000
    1.4047   -0.1155    0.2016 C   0  0  0  0  0  0  0  0  0  0  0  0
    0.7889    0.5682   -0.8595 C   0  0  0  0  0  0  0  0  0  0  0  0
   -0.6025    0.6903   -0.9102 C   0  0  0  0  0  0  0  0  0  0  0  0
   -1.4029    0.1298    0.0987 C   0  0  0  0  0  0  0  0  0  0  0  0
   -0.7871   -0.5542    1.1595 C   0  0  0  0  0  0  0  0  0  0  0  0
    0.6043   -0.6752    1.2109 C   0  0  0  0  0  0  0  0  0  0  0  0
  1  2  4  0
  2  3  4  0
  3  4  4  0
  4  5  4  0
  5  6  4  0
  6  1  4  0
M  END
$$$$

     RDKit          3D

  6  6  0  0  0  0  0  0  0  0999 V2000
    1.4063    0.0996   -0.0723 C   0  0  0  0  0  0  0  0  0  0  0  0
    0.6160    1.1389   -0.5897 C   0  0  0  0  0  0  0  0  0  0  0  0
   -0.7777    1.0330   -0.5948 C   0  0  0  0  0  0  0  0  0  0  0  0
   -1.4058   -0.1135   -0.0815 C   0  0  0  0  0  0  0  0  0  0  0  0
   -0.6154   -1.1525    0.4364 C   0  0  0  0  0  0  0  0  0  0  0  0
    0.7783   -1.0472    0.4404 C   0  0  0  0  0  0  0  0  0  0  0  0
  1  2  4  0
  2  3  4  0
  3  4  4  0
  4  5  4  0
  5  6  4  0
  6  1  4  0
M  END
$$$$

     RDKit          3D

  6  6  0  0  0  0  0  0  0  0999 V2000
    1.3926    0.2133    0.0349 C   0  0  0  0  0  0  0  0  0  0  0  0
    0.8129   -0.9149   -0.5680 C   0  0  0  0  0  0  0  0  0  0  0  0
   -0.5670   -1.1247   -0.4974 C   0  0  0  0  0  0  0  0  0  0  0  0
   -1.3918   -0.2107    0.1785 C   0  0  0  0  0  0  0  0  0  0  0  0
   -0.8120    0.9172    0.7820 C   0  0  0  0  0  0  0  0  0  0  0  0
    0.5678    1.1277    0.7102 C   0  0  0  0  0  0  0  0  0  0  0  0
  1  2  4  0
  2  3  4  0
  3  4  4  0
  4  5  4  0
  5  6  4  0
  6  1  4  0
M  END
$$$$

     RDKit          3D

  6  6  0  0  0  0  0  0  0  0999 V2000
    1.4081   -0.0445    0.0605 C   0  0  0  0  0  0  0  0  0  0  0  0
    0.6525   -1.1683    0.4329 C   0  0  0  0  0  0  0  0  0  0  0  0
   -0.7435   -1.1332    0.3755 C   0  0  0  0  0  0  0  0  0  0  0  0
   -1.4088    0.0266   -0.0542 C   0  0  0  0  0  0  0  0  0  0  0  0
   -0.6532    1.1506   -0.4261 C   0  0  0  0  0  0  0  0  0  0  0  0
    0.7428    1.1151   -0.3698 C   0  0  0  0  0  0  0  0  0  0  0  0
  1  2  4  0
  2  3  4  0
  3  4  4  0
  4  5  4  0
  5  6  4  0
  6  1  4  0
M  END
$$$$

     RDKit          3D

  8  8  0  0  0  0  0  0  0  0999 V2000
    1.4141    1.6009    1.8146 F   0  0  0  0  0  0  0  0  0  0  0  0
    0.7249    0.8088    0.9541 C   0  0  0  0  0  0  0  0  0  0  0  0
   -0.6724    0.8159    0.9920 C   0  0  0  0  0  0  0  0  0  0  0  0
   -1.4151    0.0228    0.1016 C   0  0  0  0  0  0  0  0  0  0  0  0
   -0.7336   -0.7863   -0.8227 C   0  0  0  0  0  0  0  0  0  0  0  0
    0.6637   -0.7952   -0.8649 C   0  0  0  0  0  0  0  0  0  0  0  0
    1.2934   -1.5989   -1.7596 F   0  0  0  0  0  0  0  0  0  0  0  0
    1.4046    0.0036    0.0234 C   0  0  0  0  0  0  0  0  0  0  0  0
  1  2  1  0
  2  3  4  0
  3  4  4  0
  4  5  4  0
  5  6  4  0
  6  7  1  0
  6  8  4  0
  8  2  4  0
M  END
$$$$

     RDKit          3D

  8  8  0  0  0  0  0  0  0  0999 V2000
    1.2468   -0.9623   -2.2408 F   0  0  0  0  0  0  0  0  0  0  0  0
    0.6400   -0.4914   -1.1214 C   0  0  0  0  0  0  0  0  0  0  0  0
   -0.7558   -0.4249   -1.0799 C   0  0  0  0  0  0  0  0  0  0  0  0
   -1.4134    0.0760    0.0559 C   0  0  0  0  0  0  0  0  0  0  0  0
   -0.6489    0.5012    1.1550 C   0  0  0  0  0  0  0  0  0  0  0  0
    0.7471    0.4380    1.1169 C   0  0  0  0  0  0  0  0  0  0  0  0
    1.4575    0.8426    2.2007 F   0  0  0  0  0  0  0  0  0  0  0  0
    1.4031   -0.0586   -0.0230 C   0  0  0  0  0  0  0  0  0  0  0  0
  1  2  1  0
  2  3  4  0
  3  4  4  0
  4  5  4  0
  5  6  4  0
  6  7  1  0
  6  8  4  0
  8  2  4  0
M  END
$$$$

     RDKit          3D

  8  8  0  0  0  0  0  0  0  0999 V2000
   -1.3051   -2.1962   -1.0174 F   0  0  0  0  0  0  0  0  0  0  0  0
   -0.6706   -1.1013   -0.5259 C   0  0  0  0  0  0  0  0  0  0  0  0
    0.7251   -1.0419   -0.5784 C   0  0  0  0  0  0  0  0  0  0  0  0
    1.4125    0.0703   -0.0649 C   0  0  0  0  0  0  0  0  0  0  0  0
    0.6782    1.1190    0.5133 C   0  0  0  0  0  0  0  0  0  0  0  0
   -0.7175    1.0628    0.5693 C   0  0  0  0  0  0  0  0  0  0  0  0
   -1.3999    2.1009    1.1167 F   0  0  0  0  0  0  0  0  0  0  0  0
   -1.4036   -0.0481    0.0483 C   0  0  0  0  0  0  0  0  0  0  0  0
  1  2  1  0
  2  3  4  0
  3  4  4  0
  4  5  4  0
  5  6  4  0
  6  7  1  0
  6  8  4  0
  8  2  4  0
M  END
$$$$

     RDKit          3D

  8  8  0  0  0  0  0  0  0  0999 V2000
    1.3541   -1.0612    2.1368 F   0  0  0  0  0  0  0  0  0  0  0  0
    0.6945   -0.5407    1.0705 C   0  0  0  0  0  0  0  0  0  0  0  0
   -0.7032   -0.5617    1.0575 C   0  0  0  0  0  0  0  0  0  0  0  0
   -1.4157   -0.0132   -0.0218 C   0  0  0  0  0  0  0  0  0  0  0  0
   -0.7036    0.5492   -1.0942 C   0  0  0  0  0  0  0  0  0  0  0  0
    0.6940    0.5737   -1.0844 C   0  0  0  0  0  0  0  0  0  0  0  0
    1.3537    1.1110   -2.1422 F   0  0  0  0  0  0  0  0  0  0  0  0
    1.4048    0.0291   -0.0006 C   0  0  0  0  0  0  0  0  0  0  0  0
  1  2  1  0
  2  3  4  0
  3  4  4  0
  4  5  4  0
  5  6  4  0
  6  7  1  0
  6  8  4  0
  8  2  4  0
M  END
$$$$

     RDKit          3D

  8  8  0  0  0  0  0  0  0  0999 V2000
   -1.2176    2.0785    1.1378 F   0  0  0  0  0  0  0  0  0  0  0  0
   -0.6255    1.0520    0.4756 C   0  0  0  0  0  0  0  0  0  0  0  0
    0.7685    0.9475    0.4877 C   0  0  0  0  0  0  0  0  0  0  0  0
    1.4127   -0.0916   -0.2043 C   0  0  0  0  0  0  0  0  0  0  0  0
    0.6358   -1.0313   -0.9018 C   0  0  0  0  0  0  0  0  0  0  0  0
   -0.7582   -0.9295   -0.9178 C   0  0  0  0  0  0  0  0  0  0  0  0
   -1.4820   -1.8615   -1.5888 F   0  0  0  0  0  0  0  0  0  0  0  0
   -1.4004    0.1144   -0.2291 C   0  0  0  0  0  0  0  0  0  0  0  0
  1  2  1  0
  2  3  4  0
  3  4  4  0
  4  5  4  0
  5  6  4  0
  6  7  1  0
  6  8  4  0
  8  2  4  0
M  END
$$$$

     RDKit          3D

  8  8  0  0  0  0  0  0  0  0999 V2000
    1.3414   -0.4401   -2.3645 F   0  0  0  0  0  0  0  0  0  0  0  0
    0.6885   -0.2108   -1.1967 C   0  0  0  0  0  0  0  0  0  0  0  0
   -0.7090   -0.1766   -1.1929 C   0  0  0  0  0  0  0  0  0  0  0  0
   -1.4149    0.0435    0.0015 C   0  0  0  0  0  0  0  0  0  0  0  0
   -0.6968    0.2180    1.1963 C   0  0  0  0  0  0  0  0  0  0  0  0
    0.7006    0.1829    1.1971 C   0  0  0  0  0  0  0  0  0  0  0  0
    1.3664    0.3742    2.3646 F   0  0  0  0  0  0  0  0  0  0  0  0
    1.4050   -0.0304   -0.0007 C   0  0  0  0  0  0  0  0  0  0  0  0
  1  2  1  0
  2  3  4  0
  3  4  4  0
  4  5  4  0
  5  6  4  0
  6  7  1  0
  6  8  4  0
  8  2  4  0
M  END
$$$$

     RDKit          3D

  8  8  0  0  0  0  0  0  0  0999 V2000
    1.4124   -2.1454    0.7745 F   0  0  0  0  0  0  0  0  0  0  0  0
    0.7228   -1.0453    0.3782 C   0  0  0  0  0  0  0  0  0  0  0  0
   -0.6701   -1.0356    0.4954 C   0  0  0  0  0  0  0  0  0  0  0  0
   -1.4117    0.0929    0.1082 C   0  0  0  0  0  0  0  0  0  0  0  0
   -0.7329    1.2179   -0.3886 C   0  0  0  0  0  0  0  0  0  0  0  0
    0.6601    1.2130   -0.5059 C   0  0  0  0  0  0  0  0  0  0  0  0
    1.2855    2.3083   -1.0078 F   0  0  0  0  0  0  0  0  0  0  0  0
    1.3994    0.0797   -0.1245 C   0  0  0  0  0  0  0  0  0  0  0  0
  1  2  1  0
  2  3  4  0
  3  4  4  0
  4  5  4  0
  5  6  4  0
  6  7  1  0
  6  8  4  0
  8  2  4  0
M  END
$$$$

     RDKit          3D

  8  8  0  0  0  0  0  0  0  0999 V2000
   -1.5368   -0.9234   -2.1205 F   0  0  0  0  0  0  0  0  0  0  0  0
   -0.7860   -0.5204   -1.0637 C   0  0  0  0  0  0  0  0  0  0  0  0
    0.6068   -0.5099   -1.1822 C   0  0  0  0  0  0  0  0  0  0  0  0
    1.4115   -0.0843   -0.1124 C   0  0  0  0  0  0  0  0  0  0  0  0
    0.7966    0.3421    1.0765 C   0  0  0  0  0  0  0  0  0  0  0  0
   -0.5960    0.3347    1.1986 C   0  0  0  0  0  0  0  0  0  0  0  0
   -1.1597    0.7342    2.3671 F   0  0  0  0  0  0  0  0  0  0  0  0
   -1.3989   -0.0984    0.1290 C   0  0  0  0  0  0  0  0  0  0  0  0
  1  2  1  0
  2  3  4  0
  3  4  4  0
  4  5  4  0
  5  6  4  0
  6  7  1  0
  6  8  4  0
  8  2  4  0
M  END
$$$$

     RDKit          3D

  8  8  0  0  0  0  0  0  0  0999 V2000
   -1.5432   -2.2717    0.0615 F   0  0  0  0  0  0  0  0  0  0  0  0
   -0.7897   -1.1492   -0.0620 C   0  0  0  0  0  0  0  0  0  0  0  0
    0.6023   -1.2657   -0.1164 C   0  0  0  0  0  0  0  0  0  0  0  0
    1.4091   -0.1253   -0.2638 C   0  0  0  0  0  0  0  0  0  0  0  0
    0.7980    1.1369   -0.3464 C   0  0  0  0  0  0  0  0  0  0  0  0
   -0.5936    1.2576   -0.2941 C   0  0  0  0  0  0  0  0  0  0  0  0
   -1.1536    2.4924   -0.3617 F   0  0  0  0  0  0  0  0  0  0  0  0
   -1.3993    0.1144   -0.1521 C   0  0  0  0  0  0  0  0  0  0  0  0
  1  2  1  0
  2  3  4  0
  3  4  4  0
  4  5  4  0
  5  6  4  0
  6  7  1  0
  6  8  4  0
  8  2  4  0
M  END
$$$$

     RDKit          3D

  8  8  0  0  0  0  0  0  0  0999 V2000
   -1.4351    0.3383    2.2830 F   0  0  0  0  0  0  0  0  0  0  0  0
   -0.7362    0.1627    1.1325 C   0  0  0  0  0  0  0  0  0  0  0  0
    0.6567    0.0591    1.1907 C   0  0  0  0  0  0  0  0  0  0  0  0
    1.4105   -0.1031    0.0164 C   0  0  0  0  0  0  0  0  0  0  0  0
    0.7441   -0.1695   -1.2184 C   0  0  0  0  0  0  0  0  0  0  0  0
   -0.6484   -0.0646   -1.2812 C   0  0  0  0  0  0  0  0  0  0  0  0
   -1.2643   -0.1473   -2.4882 F   0  0  0  0  0  0  0  0  0  0  0  0
   -1.4002    0.1032   -0.1052 C   0  0  0  0  0  0  0  0  0  0  0  0
  1  2  1  0
  2  3  4  0
  3  4  4  0
  4  5  4  0
  5  6  4  0
  6  7  1  0
  6  8  4  0
  8  2  4  0
M  END
$$$$

     RDKit          3D

  8  8  0  0  0  0  0  0  0  0999 V2000
    1.2991   -1.6590   -1.7682 F   0  0  0  0  0  0  0  0  0  0  0  0
    0.6665   -0.8439   -0.8861 C   0  0  0  0  0  0  0  0  0  0  0  0
   -0.7306   -0.7947   -0.8850 C   0  0  0  0  0  0  0  0  0  0  0  0
   -1.4149    0.0496    0.0050 C   0  0  0  0  0  0  0  0  0  0  0  0
   -0.6752    0.8537    0.8880 C   0  0  0  0  0  0  0  0  0  0  0  0
    0.7220    0.8088    0.8890 C   0  0  0  0  0  0  0  0  0  0  0  0
    1.4081    1.5836    1.7676 F   0  0  0  0  0  0  0  0  0  0  0  0
    1.4044   -0.0423    0.0023 C   0  0  0  0  0  0  0  0  0  0  0  0
  1  2  1  0
  2  3  4  0
  3  4  4  0
  4  5  4  0
  5  6  4  0
  6  7  1  0
  6  8  4  0
  8  2  4  0
M  END
$$$$

     RDKit          3D

  8  8  0  0  0  0  0  0  0  0999 V2000
   -1.0260   -2.5461   -0.1087 F   0  0  0  0  0  0  0  0  0  0  0  0
   -0.5288   -1.2869   -0.0084 C   0  0  0  0  0  0  0  0  0  0  0  0
    0.8557   -1.0965   -0.0424 C   0  0  0  0  0  0  0  0  0  0  0  0
    1.4027    0.1917    0.0789 C   0  0  0  0  0  0  0  0  0  0  0  0
    0.5380    1.2891    0.2256 C   0  0  0  0  0  0  0  0  0  0  0  0
   -0.8469    1.1029    0.2618 C   0  0  0  0  0  0  0  0  0  0  0  0
   -1.6568    2.1849    0.3899 F   0  0  0  0  0  0  0  0  0  0  0  0
   -1.3917   -0.1878    0.1456 C   0  0  0  0  0  0  0  0  0  0  0  0
  1  2  1  0
  2  3  4  0
  3  4  4  0
  4  5  4  0
  5  6  4  0
  6  7  1  0
  6  8  4  0
  8  2  4  0
M  END
$$$$

     RDKit          3D

  8  8  0  0  0  0  0  0  0  0999 V2000
    1.3251   -2.2035    0.8303 F   0  0  0  0  0  0  0  0  0  0  0  0
    0.6802   -1.1088    0.3520 C   0  0  0  0  0  0  0  0  0  0  0  0
   -0.7170   -1.0755    0.3788 C   0  0  0  0  0  0  0  0  0  0  0  0
   -1.4147    0.0361   -0.1221 C   0  0  0  0  0  0  0  0  0  0  0  0
   -0.6887    1.1110   -0.6615 C   0  0  0  0  0  0  0  0  0  0  0  0
    0.7085    1.0809   -0.6917 C   0  0  0  0  0  0  0  0  0  0  0  0
    1.3822    2.1435   -1.2017 F   0  0  0  0  0  0  0  0  0  0  0  0
    1.4047   -0.0296   -0.1833 C   0  0  0  0  0  0  0  0  0  0  0  0
  1  2  1  0
  2  3  4  0
  3  4  4  0
  4  5  4  0
  5  6  4  0
  6  7  1  0
  6  8  4  0
  8  2  4  0
M  END
$$$$
