
     RDKit          3D

  8  8  0  0  0  0  0  0  0  0999 V2000
    1.4477    2.3317    0.3769 F   0  0  0  0  0  0  0  0  0  0  0  0
    0.7465    1.1750    0.2628 C   0  0  0  0  0  0  0  0  0  0  0  0
   -0.6482    1.2349    0.1915 C   0  0  0  0  0  0  0  0  0  0  0  0
   -1.4091    0.0655    0.0271 C   0  0  0  0  0  0  0  0  0  0  0  0
   -0.7466   -1.1732   -0.0595 C   0  0  0  0  0  0  0  0  0  0  0  0
   -1.4477   -2.3299   -0.1735 F   0  0  0  0  0  0  0  0  0  0  0  0
    0.6482   -1.2332    0.0119 C   0  0  0  0  0  0  0  0  0  0  0  0
    1.4091   -0.0637    0.1762 C   0  0  0  0  0  0  0  0  0  0  0  0
  1  2  1  0
  2  3  4  0
  3  4  4  0
  4  5  4  0
  5  6  1  0
  5  7  4  0
  7  8  4  0
  8  2  4  0
M  END
$$$$

     RDKit          3D

  8  8  0  0  0  0  0  0  0  0999 V2000
    1.2711   -2.4439   -0.0736 F   0  0  0  0  0  0  0  0  0  0  0  0
    0.6587   -1.2338   -0.0175 C   0  0  0  0  0  0  0  0  0  0  0  0
   -0.7380   -1.1818   -0.0414 C   0  0  0  0  0  0  0  0  0  0  0  0
   -1.4117    0.0478    0.0464 C   0  0  0  0  0  0  0  0  0  0  0  0
   -0.6595    1.2305    0.1728 C   0  0  0  0  0  0  0  0  0  0  0  0
   -1.2735    2.4340    0.3044 F   0  0  0  0  0  0  0  0  0  0  0  0
    0.7372    1.1784    0.1988 C   0  0  0  0  0  0  0  0  0  0  0  0
    1.4112   -0.0500    0.0976 C   0  0  0  0  0  0  0  0  0  0  0  0
  1  2  1  0
  2  3  4  0
  3  4  4  0
  4  5  4  0
  5  6  1  0
  5  7  4  0
  7  8  4  0
  8  2  4  0
M  END
$$$$

     RDKit          3D

  8  8  0  0  0  0  0  0  0  0999 V2000
   -1.4865   -1.4865    1.8831 F   0  0  0  0  0  0  0  0  0  0  0  0
   -0.7680   -0.7561    0.9927 C   0  0  0  0  0  0  0  0  0  0  0  0
    0.6234   -0.8896    0.9763 C   0  0  0  0  0  0  0  0  0  0  0  0
    1.4067   -0.1290    0.0923 C   0  0  0  0  0  0  0  0  0  0  0  0
    0.7708    0.7827   -0.7711 C   0  0  0  0  0  0  0  0  0  0  0  0
    1.4953    1.5672   -1.6091 F   0  0  0  0  0  0  0  0  0  0  0  0
   -0.6204    0.9177   -0.7533 C   0  0  0  0  0  0  0  0  0  0  0  0
   -1.4047    0.1474    0.1215 C   0  0  0  0  0  0  0  0  0  0  0  0
  1  2  1  0
  2  3  4  0
  3  4  4  0
  4  5  4  0
  5  6  1  0
  5  7  4  0
  7  8  4  0
  8  2  4  0
M  END
$$$$

     RDKit          3D

  8  8  0  0  0  0  0  0  0  0999 V2000
    1.5452    2.2778   -0.0012 F   0  0  0  0  0  0  0  0  0  0  0  0
    0.7957    1.1462   -0.0130 C   0  0  0  0  0  0  0  0  0  0  0  0
   -0.5904    1.2525    0.1333 C   0  0  0  0  0  0  0  0  0  0  0  0
   -1.3993    0.1042    0.1581 C   0  0  0  0  0  0  0  0  0  0  0  0
   -0.7923   -1.1606    0.0465 C   0  0  0  0  0  0  0  0  0  0  0  0
   -1.5342   -2.2956    0.1097 F   0  0  0  0  0  0  0  0  0  0  0  0
    0.5940   -1.2671   -0.0977 C   0  0  0  0  0  0  0  0  0  0  0  0
    1.4016   -0.1182   -0.1357 C   0  0  0  0  0  0  0  0  0  0  0  0
  1  2  1  0
  2  3  4  0
  3  4  4  0
  4  5  4  0
  5  6  1  0
  5  7  4  0
  7  8  4  0
  8  2  4  0
M  END
$$$$

     RDKit          3D

  8  8  0  0  0  0  0  0  0  0999 V2000
    1.5002    1.8041    1.6593 F   0  0  0  0  0  0  0  0  0  0  0  0
    0.7744    0.9271    0.9199 C   0  0  0  0  0  0  0  0  0  0  0  0
   -0.6209    0.9870    0.9788 C   0  0  0  0  0  0  0  0  0  0  0  0
   -1.4092    0.0688    0.2652 C   0  0  0  0  0  0  0  0  0  0  0  0
   -0.7733   -0.9127   -0.5177 C   0  0  0  0  0  0  0  0  0  0  0  0
   -1.4991   -1.7897   -1.2570 F   0  0  0  0  0  0  0  0  0  0  0  0
    0.6221   -0.9727   -0.5765 C   0  0  0  0  0  0  0  0  0  0  0  0
    1.4103   -0.0545    0.1371 C   0  0  0  0  0  0  0  0  0  0  0  0
  1  2  1  0
  2  3  4  0
  3  4  4  0
  4  5  4  0
  5  6  1  0
  5  7  4  0
  7  8  4  0
  8  2  4  0
M  END
$$$$

     RDKit          3D

  8  8  0  0  0  0  0  0  0  0999 V2000
   -1.1610   -0.2324   -2.4429 F   0  0  0  0  0  0  0  0  0  0  0  0
   -0.6030   -0.0985   -1.2127 C   0  0  0  0  0  0  0  0  0  0  0  0
    0.7903   -0.0862   -1.1008 C   0  0  0  0  0  0  0  0  0  0  0  0
    1.4082    0.0046    0.1576 C   0  0  0  0  0  0  0  0  0  0  0  0
    0.6028    0.0891    1.3087 C   0  0  0  0  0  0  0  0  0  0  0  0
    1.1608    0.2231    2.5389 F   0  0  0  0  0  0  0  0  0  0  0  0
   -0.7905    0.0767    1.1968 C   0  0  0  0  0  0  0  0  0  0  0  0
   -1.4084   -0.0140   -0.0616 C   0  0  0  0  0  0  0  0  0  0  0  0
  1  2  1  0
  2  3  4  0
  3  4  4  0
  4  5  4  0
  5  6  1  0
  5  7  4  0
  7  8  4  0
  8  2  4  0
M  END
$$$$

     RDKit          3D

  8  8  0  0  0  0  0  0  0  0999 V2000
   -1.2910   -1.9805   -1.4098 F   0  0  0  0  0  0  0  0  0  0  0  0
   -0.6691   -0.9872   -0.7249 C   0  0  0  0  0  0  0  0  0  0  0  0
    0.7281   -0.9437   -0.7183 C   0  0  0  0  0  0  0  0  0  0  0  0
    1.4118    0.0403    0.0151 C   0  0  0  0  0  0  0  0  0  0  0  0
    0.6686    0.9893    0.7418 C   0  0  0  0  0  0  0  0  0  0  0  0
    1.2905    1.9826    1.4267 F   0  0  0  0  0  0  0  0  0  0  0  0
   -0.7285    0.9457    0.7352 C   0  0  0  0  0  0  0  0  0  0  0  0
   -1.4122   -0.0382    0.0017 C   0  0  0  0  0  0  0  0  0  0  0  0
  1  2  1  0
  2  3  4  0
  3  4  4  0
  4  5  4  0
  5  6  1  0
  5  7  4  0
  7  8  4  0
  8  2  4  0
M  END
$$$$

     RDKit          3D

  8  8  0  0  0  0  0  0  0  0999 V2000
   -1.2730   -1.3997   -2.0701 F   0  0  0  0  0  0  0  0  0  0  0  0
   -0.6599   -0.7276   -1.0626 C   0  0  0  0  0  0  0  0  0  0  0  0
    0.7368   -0.7237   -1.0053 C   0  0  0  0  0  0  0  0  0  0  0  0
    1.4118   -0.0032   -0.0059 C   0  0  0  0  0  0  0  0  0  0  0  0
    0.6603    0.7132    0.9444 C   0  0  0  0  0  0  0  0  0  0  0  0
    1.2734    1.3852    1.9519 F   0  0  0  0  0  0  0  0  0  0  0  0
   -0.7363    0.7093    0.8870 C   0  0  0  0  0  0  0  0  0  0  0  0
   -1.4113   -0.0113   -0.1124 C   0  0  0  0  0  0  0  0  0  0  0  0
  1  2  1  0
  2  3  4  0
  3  4  4  0
  4  5  4  0
  5  6  1  0
  5  7  4  0
  7  8  4  0
  8  2  4  0
M  END
$$$$

     RDKit          3D

  8  8  0  0  0  0  0  0  0  0999 V2000
    1.2489   -1.9272   -1.4553 F   0  0  0  0  0  0  0  0  0  0  0  0
    0.6454   -0.9916   -0.6787 C   0  0  0  0  0  0  0  0  0  0  0  0
   -0.7474   -0.8790   -0.7163 C   0  0  0  0  0  0  0  0  0  0  0  0
   -1.4082    0.1057    0.0369 C   0  0  0  0  0  0  0  0  0  0  0  0
   -0.6469    0.9774    0.8377 C   0  0  0  0  0  0  0  0  0  0  0  0
   -1.2505    1.9129    1.6144 F   0  0  0  0  0  0  0  0  0  0  0  0
    0.7458    0.8648    0.8754 C   0  0  0  0  0  0  0  0  0  0  0  0
    1.4066   -0.1199    0.1222 C   0  0  0  0  0  0  0  0  0  0  0  0
  1  2  1  0
  2  3  4  0
  3  4  4  0
  4  5  4  0
  5  6  1  0
  5  7  4  0
  7  8  4  0
  8  2  4  0
M  END
$$$$

     RDKit          3D

  8  8  0  0  0  0  0  0  0  0999 V2000
   -1.5591   -2.1404   -0.8686 F   0  0  0  0  0  0  0  0  0  0  0  0
   -0.8040   -1.0782   -0.4888 C   0  0  0  0  0  0  0  0  0  0  0  0
    0.5844   -1.2262   -0.4212 C   0  0  0  0  0  0  0  0  0  0  0  0
    1.4046   -0.1433   -0.0633 C   0  0  0  0  0  0  0  0  0  0  0  0
    0.8091    1.1012    0.2147 C   0  0  0  0  0  0  0  0  0  0  0  0
    1.5698    2.1827    0.5215 F   0  0  0  0  0  0  0  0  0  0  0  0
   -0.5791    1.2497    0.1451 C   0  0  0  0  0  0  0  0  0  0  0  0
   -1.4004    0.1634   -0.2000 C   0  0  0  0  0  0  0  0  0  0  0  0
  1  2  1  0
  2  3  4  0
  3  4  4  0
  4  5  4  0
  5  6  1  0
  5  7  4  0
  7  8  4  0
  8  2  4  0
M  END
$$$$

     RDKit          3D

  8  8  0  0  0  0  0  0  0  0999 V2000
   -1.4539    0.0625   -2.2471 F   0  0  0  0  0  0  0  0  0  0  0  0
   -0.7513    0.0243   -1.0863 C   0  0  0  0  0  0  0  0  0  0  0  0
    0.6448   -0.0163   -1.1428 C   0  0  0  0  0  0  0  0  0  0  0  0
    1.4106   -0.0249    0.0350 C   0  0  0  0  0  0  0  0  0  0  0  0
    0.7515    0.0214    1.2777 C   0  0  0  0  0  0  0  0  0  0  0  0
    1.4563    0.0588    2.4372 F   0  0  0  0  0  0  0  0  0  0  0  0
   -0.6445    0.0640    1.3342 C   0  0  0  0  0  0  0  0  0  0  0  0
   -1.4106    0.0593    0.1566 C   0  0  0  0  0  0  0  0  0  0  0  0
  1  2  1  0
  2  3  4  0
  3  4  4  0
  4  5  4  0
  5  6  1  0
  5  7  4  0
  7  8  4  0
  8  2  4  0
M  END
$$$$

     RDKit          3D

  8  8  0  0  0  0  0  0  0  0999 V2000
   -1.6137   -0.3858    2.2214 F   0  0  0  0  0  0  0  0  0  0  0  0
   -0.8318   -0.2401    1.1214 C   0  0  0  0  0  0  0  0  0  0  0  0
    0.5576   -0.2499    1.2744 C   0  0  0  0  0  0  0  0  0  0  0  0
    1.4025   -0.0708    0.1663 C   0  0  0  0  0  0  0  0  0  0  0  0
    0.8295    0.1327   -1.1029 C   0  0  0  0  0  0  0  0  0  0  0  0
    1.6107    0.3531   -2.1909 F   0  0  0  0  0  0  0  0  0  0  0  0
   -0.5599    0.1446   -1.2555 C   0  0  0  0  0  0  0  0  0  0  0  0
   -1.4047   -0.0477   -0.1496 C   0  0  0  0  0  0  0  0  0  0  0  0
  1  2  1  0
  2  3  4  0
  3  4  4  0
  4  5  4  0
  5  6  1  0
  5  7  4  0
  7  8  4  0
  8  2  4  0
M  END
$$$$

     RDKit          3D

  8  8  0  0  0  0  0  0  0  0999 V2000
    1.5005   -1.9344    1.2265 F   0  0  0  0  0  0  0  0  0  0  0  0
    0.7751   -0.9782    0.5925 C   0  0  0  0  0  0  0  0  0  0  0  0
   -0.6166   -1.1030    0.5509 C   0  0  0  0  0  0  0  0  0  0  0  0
   -1.4079   -0.1129   -0.0551 C   0  0  0  0  0  0  0  0  0  0  0  0
   -0.7783    1.0082   -0.6274 C   0  0  0  0  0  0  0  0  0  0  0  0
   -1.5037    1.9644   -1.2614 F   0  0  0  0  0  0  0  0  0  0  0  0
    0.6134    1.1330   -0.5857 C   0  0  0  0  0  0  0  0  0  0  0  0
    1.4046    0.1429    0.0203 C   0  0  0  0  0  0  0  0  0  0  0  0
  1  2  1  0
  2  3  4  0
  3  4  4  0
  4  5  4  0
  5  6  1  0
  5  7  4  0
  7  8  4  0
  8  2  4  0
M  END
$$$$

     RDKit          3D

  8  8  0  0  0  0  0  0  0  0999 V2000
   -1.2091   -1.8129    1.5900 F   0  0  0  0  0  0  0  0  0  0  0  0
   -0.6273   -0.9189    0.7503 C   0  0  0  0  0  0  0  0  0  0  0  0
    0.7674   -0.8806    0.6657 C   0  0  0  0  0  0  0  0  0  0  0  0
    1.4103    0.0505   -0.1671 C   0  0  0  0  0  0  0  0  0  0  0  0
    0.6290    0.9568   -0.9080 C   0  0  0  0  0  0  0  0  0  0  0  0
    1.2130    1.9001   -1.6901 F   0  0  0  0  0  0  0  0  0  0  0  0
   -0.7657    0.9198   -0.8218 C   0  0  0  0  0  0  0  0  0  0  0  0
   -1.4089   -0.0200    0.0008 C   0  0  0  0  0  0  0  0  0  0  0  0
  1  2  1  0
  2  3  4  0
  3  4  4  0
  4  5  4  0
  5  6  1  0
  5  7  4  0
  7  8  4  0
  8  2  4  0
M  END
$$$$

     RDKit          3D

  8  8  0  0  0  0  0  0  0  0999 V2000
   -1.2567   -2.3579   -0.7180 F   0  0  0  0  0  0  0  0  0  0  0  0
   -0.6515   -1.1832   -0.4076 C   0  0  0  0  0  0  0  0  0  0  0  0
    0.7451   -1.1238   -0.4015 C   0  0  0  0  0  0  0  0  0  0  0  0
    1.4112    0.0636   -0.0553 C   0  0  0  0  0  0  0  0  0  0  0  0
    0.6511    1.1937    0.2997 C   0  0  0  0  0  0  0  0  0  0  0  0
    1.2570    2.3465    0.6825 F   0  0  0  0  0  0  0  0  0  0  0  0
   -0.7454    1.1338    0.2957 C   0  0  0  0  0  0  0  0  0  0  0  0
   -1.4116   -0.0499   -0.0634 C   0  0  0  0  0  0  0  0  0  0  0  0
  1  2  1  0
  2  3  4  0
  3  4  4  0
  4  5  4  0
  5  6  1  0
  5  7  4  0
  7  8  4  0
  8  2  4  0
M  END
$$$$

     RDKit          3D

  6  6  0  0  0  0  0  0  0  0999 V2000
   -1.4025    0.0148   -0.0398 C   0  0  0  0  0  0  0  0  0  0  0  0
   -0.7048   -0.8300   -0.9193 C   0  0  0  0  0  0  0  0  0  0  0  0
    0.6927   -0.8495   -0.9249 C   0  0  0  0  0  0  0  0  0  0  0  0
    1.4209   -0.0246   -0.0512 C   0  0  0  0  0  0  0  0  0  0  0  0
    0.7232    0.8294    0.8194 C   0  0  0  0  0  0  0  0  0  0  0  0
   -0.6742    0.8489    0.8250 C   0  0  0  0  0  0  0  0  0  0  0  0
  1  2  4  0
  2  3  4  0
  3  4  4  0
  4  5  4  0
  5  6  4  0
  6  1  4  0
M  END
$$$$

     RDKit          3D

  6  6  0  0  0  0  0  0  0  0999 V2000
   -1.4012    0.0483   -0.0821 C   0  0  0  0  0  0  0  0  0  0  0  0
   -0.6422    0.4564   -1.1918 C   0  0  0  0  0  0  0  0  0  0  0  0
    0.7542    0.4141   -1.1502 C   0  0  0  0  0  0  0  0  0  0  0  0
    1.4199   -0.0370    0.0018 C   0  0  0  0  0  0  0  0  0  0  0  0
    0.6606   -0.4570    1.1069 C   0  0  0  0  0  0  0  0  0  0  0  0
   -0.7357   -0.4148    1.0653 C   0  0  0  0  0  0  0  0  0  0  0  0
  1  2  4  0
  2  3  4  0
  3  4  4  0
  4  5  4  0
  5  6  4  0
  6  1  4  0
M  END
$$$$

     RDKit          3D

  6  6  0  0  0  0  0  0  0  0999 V2000
   -1.4013    0.0598   -0.0047 C   0  0  0  0  0  0  0  0  0  0  0  0
   -0.6387    1.2127   -0.2558 C   0  0  0  0  0  0  0  0  0  0  0  0
    0.7576    1.1523   -0.2625 C   0  0  0  0  0  0  0  0  0  0  0  0
    1.4197   -0.0609   -0.0102 C   0  0  0  0  0  0  0  0  0  0  0  0
    0.6571   -1.2139    0.2409 C   0  0  0  0  0  0  0  0  0  0  0  0
   -0.7391   -1.1534    0.2477 C   0  0  0  0  0  0  0  0  0  0  0  0
  1  2  4  0
  2  3  4  0
  3  4  4  0
  4  5  4  0
  5  6  4  0
  6  1  4  0
M  END
$$$$

     RDKit          3D

  6  6  0  0  0  0  0  0  0  0999 V2000
    1.4022   -0.0239   -0.2352 C   0  0  0  0  0  0  0  0  0  0  0  0
    0.7071   -0.0248    0.9858 C   0  0  0  0  0  0  0  0  0  0  0  0
   -0.6900    0.0033    1.0068 C   0  0  0  0  0  0  0  0  0  0  0  0
   -1.4207    0.0248   -0.1931 C   0  0  0  0  0  0  0  0  0  0  0  0
   -0.7256    0.0257   -1.4141 C   0  0  0  0  0  0  0  0  0  0  0  0
    0.6716   -0.0025   -1.4350 C   0  0  0  0  0  0  0  0  0  0  0  0
  1  2  4  0
  2  3  4  0
  3  4  4  0
  4  5  4  0
  5  6  4  0
  6  1  4  0
M  END
$$$$

     RDKit          3D

  6  6  0  0  0  0  0  0  0  0999 V2000
   -1.4023    0.0262   -0.0007 C   0  0  0  0  0  0  0  0  0  0  0  0
   -0.6692    1.0719   -0.5863 C   0  0  0  0  0  0  0  0  0  0  0  0
    0.7281    1.0423   -0.5919 C   0  0  0  0  0  0  0  0  0  0  0  0
    1.4206   -0.0328   -0.0101 C   0  0  0  0  0  0  0  0  0  0  0  0
    0.6877   -1.0718    0.5876 C   0  0  0  0  0  0  0  0  0  0  0  0
   -0.7096   -1.0432    0.5915 C   0  0  0  0  0  0  0  0  0  0  0  0
  1  2  4  0
  2  3  4  0
  3  4  4  0
  4  5  4  0
  5  6  4  0
  6  1  4  0
M  END
$$$$

     RDKit          3D

  6  6  0  0  0  0  0  0  0  0999 V2000
    1.4024    0.0051   -0.0186 C   0  0  0  0  0  0  0  0  0  0  0  0
    0.6734   -0.2209   -1.1982 C   0  0  0  0  0  0  0  0  0  0  0  0
   -0.7240   -0.2206   -1.1793 C   0  0  0  0  0  0  0  0  0  0  0  0
   -1.4209   -0.0043    0.0213 C   0  0  0  0  0  0  0  0  0  0  0  0
   -0.6919    0.2208    1.2011 C   0  0  0  0  0  0  0  0  0  0  0  0
    0.7056    0.2224    1.1819 C   0  0  0  0  0  0  0  0  0  0  0  0
  1  2  4  0
  2  3  4  0
  3  4  4  0
  4  5  4  0
  5  6  4  0
  6  1  4  0
M  END
$$$$

     RDKit          3D

  6  6  0  0  0  0  0  0  0  0999 V2000
   -1.4020   -0.0328   -0.1037 C   0  0  0  0  0  0  0  0  0  0  0  0
   -0.6608   -1.2242   -0.1744 C   0  0  0  0  0  0  0  0  0  0  0  0
    0.7361   -1.1900   -0.1987 C   0  0  0  0  0  0  0  0  0  0  0  0
    1.4204    0.0358   -0.1429 C   0  0  0  0  0  0  0  0  0  0  0  0
    0.6793    1.2272   -0.0713 C   0  0  0  0  0  0  0  0  0  0  0  0
   -0.7178    1.1931   -0.0488 C   0  0  0  0  0  0  0  0  0  0  0  0
  1  2  4  0
  2  3  4  0
  3  4  4  0
  4  5  4  0
  5  6  4  0
  6  1  4  0
M  END
$$$$

     RDKit          3D

  6  6  0  0  0  0  0  0  0  0999 V2000
   -1.3937   -0.1570    0.1301 C   0  0  0  0  0  0  0  0  0  0  0  0
   -0.6467   -0.4834   -1.0142 C   0  0  0  0  0  0  0  0  0  0  0  0
    0.7419   -0.3243   -1.0239 C   0  0  0  0  0  0  0  0  0  0  0  0
    1.4121    0.1586    0.1126 C   0  0  0  0  0  0  0  0  0  0  0  0
    0.6649    0.4857    1.2565 C   0  0  0  0  0  0  0  0  0  0  0  0
   -0.7233    0.3248    1.2669 C   0  0  0  0  0  0  0  0  0  0  0  0
  1  2  4  0
  2  3  4  0
  3  4  4  0
  4  5  4  0
  5  6  4  0
  6  1  4  0
M  END
$$$$

     RDKit          3D

  9  9  0  0  0  0  0  0  0  0999 V2000
    1.5968    2.2333    0.2372 F   0  0  0  0  0  0  0  0  0  0  0  0
    0.8188    1.1281    0.1099 C   0  0  0  0  0  0  0  0  0  0  0  0
   -0.5694    1.2585    0.2004 C   0  0  0  0  0  0  0  0  0  0  0  0
   -1.4013    0.1317    0.0992 C   0  0  0  0  0  0  0  0  0  0  0  0
   -0.8194   -1.1346   -0.0941 C   0  0  0  0  0  0  0  0  0  0  0  0
   -1.5983   -2.2387   -0.2277 F   0  0  0  0  0  0  0  0  0  0  0  0
    0.5705   -1.2671   -0.1851 C   0  0  0  0  0  0  0  0  0  0  0  0
    1.1069   -2.4959   -0.3999 F   0  0  0  0  0  0  0  0  0  0  0  0
    1.4002   -0.1367   -0.0832 C   0  0  0  0  0  0  0  0  0  0  0  0
  1  2  1  0
  2  3  4  0
  3  4  4  0
  4  5  4  0
  5  6  1  0
  5  7  4  0
  7  8  1  0
  7  9  4  0
  9  2  4  0
M  END
$$$$

     RDKit          3D

  9  9  0  0  0  0  0  0  0  0999 V2000
    1.2552    0.9886   -2.3551 F   0  0  0  0  0  0  0  0  0  0  0  0
    0.6493    0.4816   -1.2511 C   0  0  0  0  0  0  0  0  0  0  0  0
   -0.7422    0.3552   -1.2355 C   0  0  0  0  0  0  0  0  0  0  0  0
   -1.4020   -0.1411   -0.0997 C   0  0  0  0  0  0  0  0  0  0  0  0
   -0.6441   -0.5100    1.0269 C   0  0  0  0  0  0  0  0  0  0  0  0
   -1.2500   -1.0229    2.1284 F   0  0  0  0  0  0  0  0  0  0  0  0
    0.7494   -0.3842    1.0130 C   0  0  0  0  0  0  0  0  0  0  0  0
    1.4612   -0.7732    2.1019 F   0  0  0  0  0  0  0  0  0  0  0  0
    1.4066    0.1131   -0.1260 C   0  0  0  0  0  0  0  0  0  0  0  0
  1  2  1  0
  2  3  4  0
  3  4  4  0
  4  5  4  0
  5  6  1  0
  5  7  4  0
  7  8  1  0
  7  9  4  0
  9  2  4  0
M  END
$$$$

     RDKit          3D

  9  9  0  0  0  0  0  0  0  0999 V2000
   -1.2994   -0.6790   -2.2833 F   0  0  0  0  0  0  0  0  0  0  0  0
   -0.6694   -0.3228   -1.1348 C   0  0  0  0  0  0  0  0  0  0  0  0
    0.7264   -0.3629   -1.0832 C   0  0  0  0  0  0  0  0  0  0  0  0
    1.4079   -0.0259    0.0975 C   0  0  0  0  0  0  0  0  0  0  0  0
    0.6672    0.3529    1.2321 C   0  0  0  0  0  0  0  0  0  0  0  0
    1.2980    0.7151    2.3786 F   0  0  0  0  0  0  0  0  0  0  0  0
   -0.7305    0.3938    1.1822 C   0  0  0  0  0  0  0  0  0  0  0  0
   -1.4221    0.7897    2.2816 F   0  0  0  0  0  0  0  0  0  0  0  0
   -1.4094    0.0556   -0.0016 C   0  0  0  0  0  0  0  0  0  0  0  0
  1  2  1  0
  2  3  4  0
  3  4  4  0
  4  5  4  0
  5  6  1  0
  5  7  4  0
  7  8  1  0
  7  9  4  0
  9  2  4  0
M  END
$$$$

     RDKit          3D

  9  9  0  0  0  0  0  0  0  0999 V2000
   -1.4839    2.1117   -0.7400 F   0  0  0  0  0  0  0  0  0  0  0  0
   -0.7636    1.0154   -0.3901 C   0  0  0  0  0  0  0  0  0  0  0  0
    0.6312    1.0682   -0.4546 C   0  0  0  0  0  0  0  0  0  0  0  0
    1.4066   -0.0393   -0.0749 C   0  0  0  0  0  0  0  0  0  0  0  0
    0.7613   -1.2064    0.3737 C   0  0  0  0  0  0  0  0  0  0  0  0
    1.4820   -2.3045    0.7174 F   0  0  0  0  0  0  0  0  0  0  0  0
   -0.6353   -1.2610    0.4387 C   0  0  0  0  0  0  0  0  0  0  0  0
   -1.2358   -2.4080    0.8481 F   0  0  0  0  0  0  0  0  0  0  0  0
   -1.4084   -0.1502    0.0579 C   0  0  0  0  0  0  0  0  0  0  0  0
  1  2  1  0
  2  3  4  0
  3  4  4  0
  4  5  4  0
  5  6  1  0
  5  7  4  0
  7  8  1  0
  7  9  4  0
  9  2  4  0
M  END
$$$$

     RDKit          3D

  9  9  0  0  0  0  0  0  0  0999 V2000
    1.3048    0.8923    2.3967 F   0  0  0  0  0  0  0  0  0  0  0  0
    0.6740    0.4346    1.2852 C   0  0  0  0  0  0  0  0  0  0  0  0
   -0.7195    0.3316    1.2868 C   0  0  0  0  0  0  0  0  0  0  0  0
   -1.4046   -0.1135    0.1447 C   0  0  0  0  0  0  0  0  0  0  0  0
   -0.6699   -0.4548   -1.0057 C   0  0  0  0  0  0  0  0  0  0  0  0
   -1.3009   -0.9185   -2.1149 F   0  0  0  0  0  0  0  0  0  0  0  0
    0.7255   -0.3523   -1.0091 C   0  0  0  0  0  0  0  0  0  0  0  0
    1.4143   -0.7144   -2.1219 F   0  0  0  0  0  0  0  0  0  0  0  0
    1.4080    0.0937    0.1362 C   0  0  0  0  0  0  0  0  0  0  0  0
  1  2  1  0
  2  3  4  0
  3  4  4  0
  4  5  4  0
  5  6  1  0
  5  7  4  0
  7  8  1  0
  7  9  4  0
  9  2  4  0
M  END
$$$$

     RDKit          3D

  9  9  0  0  0  0  0  0  0  0999 V2000
   -1.6229   -0.2202    2.2069 F   0  0  0  0  0  0  0  0  0  0  0  0
   -0.8329   -0.1065    1.1088 C   0  0  0  0  0  0  0  0  0  0  0  0
    0.5538   -0.1972    1.2552 C   0  0  0  0  0  0  0  0  0  0  0  0
    1.3981   -0.1020    0.1372 C   0  0  0  0  0  0  0  0  0  0  0  0
    0.8306    0.0869   -1.1363 C   0  0  0  0  0  0  0  0  0  0  0  0
    1.6190    0.1599   -2.2393 F   0  0  0  0  0  0  0  0  0  0  0  0
   -0.5578    0.1765   -1.2849 C   0  0  0  0  0  0  0  0  0  0  0  0
   -1.0809    0.3740   -2.5223 F   0  0  0  0  0  0  0  0  0  0  0  0
   -1.4000    0.0812   -0.1633 C   0  0  0  0  0  0  0  0  0  0  0  0
  1  2  1  0
  2  3  4  0
  3  4  4  0
  4  5  4  0
  5  6  1  0
  5  7  4  0
  7  8  1  0
  7  9  4  0
  9  2  4  0
M  END
$$$$

     RDKit          3D

  9  9  0  0  0  0  0  0  0  0999 V2000
   -1.2376    1.4973    1.8651 F   0  0  0  0  0  0  0  0  0  0  0  0
   -0.6389    0.7055    0.9390 C   0  0  0  0  0  0  0  0  0  0  0  0
    0.7545    0.6008    0.9312 C   0  0  0  0  0  0  0  0  0  0  0  0
    1.4039   -0.2238   -0.0017 C   0  0  0  0  0  0  0  0  0  0  0  0
    0.6335   -0.9456   -0.9319 C   0  0  0  0  0  0  0  0  0  0  0  0
    1.2306   -1.7688   -1.8314 F   0  0  0  0  0  0  0  0  0  0  0  0
   -0.7619   -0.8431   -0.9244 C   0  0  0  0  0  0  0  0  0  0  0  0
   -1.4827   -1.5377   -1.8418 F   0  0  0  0  0  0  0  0  0  0  0  0
   -1.4086   -0.0162    0.0107 C   0  0  0  0  0  0  0  0  0  0  0  0
  1  2  1  0
  2  3  4  0
  3  4  4  0
  4  5  4  0
  5  6  1  0
  5  7  4  0
  7  8  1  0
  7  9  4  0
  9  2  4  0
M  END
$$$$

     RDKit          3D

  9  9  0  0  0  0  0  0  0  0999 V2000
   -1.5907   -1.1111   -1.9901 F   0  0  0  0  0  0  0  0  0  0  0  0
   -0.8167   -0.5962   -1.0007 C   0  0  0  0  0  0  0  0  0  0  0  0
    0.5729   -0.6096   -1.1466 C   0  0  0  0  0  0  0  0  0  0  0  0
    1.4026   -0.1015   -0.1340 C   0  0  0  0  0  0  0  0  0  0  0  0
    0.8173    0.4234    1.0329 C   0  0  0  0  0  0  0  0  0  0  0  0
    1.5934    0.9010    2.0394 F   0  0  0  0  0  0  0  0  0  0  0  0
   -0.5739    0.4362    1.1812 C   0  0  0  0  0  0  0  0  0  0  0  0
   -1.1157    0.9618    2.3099 F   0  0  0  0  0  0  0  0  0  0  0  0
   -1.4015   -0.0729    0.1651 C   0  0  0  0  0  0  0  0  0  0  0  0
  1  2  1  0
  2  3  4  0
  3  4  4  0
  4  5  4  0
  5  6  1  0
  5  7  4  0
  7  8  1  0
  7  9  4  0
  9  2  4  0
M  END
$$$$

     RDKit          3D

  9  9  0  0  0  0  0  0  0  0999 V2000
   -1.4706    2.3020   -0.3855 F   0  0  0  0  0  0  0  0  0  0  0  0
   -0.7562    1.1572   -0.2375 C   0  0  0  0  0  0  0  0  0  0  0  0
    0.6395    1.2224   -0.2246 C   0  0  0  0  0  0  0  0  0  0  0  0
    1.4077    0.0592   -0.0551 C   0  0  0  0  0  0  0  0  0  0  0  0
    0.7543   -1.1770    0.1018 C   0  0  0  0  0  0  0  0  0  0  0  0
    1.4687   -2.3161    0.2906 F   0  0  0  0  0  0  0  0  0  0  0  0
   -0.6432   -1.2438    0.0907 C   0  0  0  0  0  0  0  0  0  0  0  0
   -1.2505   -2.4504    0.2289 F   0  0  0  0  0  0  0  0  0  0  0  0
   -1.4090   -0.0773   -0.0797 C   0  0  0  0  0  0  0  0  0  0  0  0
  1  2  1  0
  2  3  4  0
  3  4  4  0
  4  5  4  0
  5  6  1  0
  5  7  4  0
  7  8  1  0
  7  9  4  0
  9  2  4  0
M  END
$$$$

     RDKit          3D

  9  9  0  0  0  0  0  0  0  0999 V2000
    1.4246    0.8115    2.2031 F   0  0  0  0  0  0  0  0  0  0  0  0
    0.7330    0.4042    1.1082 C   0  0  0  0  0  0  0  0  0  0  0  0
   -0.6634    0.4482    1.1296 C   0  0  0  0  0  0  0  0  0  0  0  0
   -1.4082    0.0513    0.0073 C   0  0  0  0  0  0  0  0  0  0  0  0
   -0.7305   -0.3931   -1.1429 C   0  0  0  0  0  0  0  0  0  0  0  0
   -1.4217   -0.7618   -2.2519 F   0  0  0  0  0  0  0  0  0  0  0  0
    0.6678   -0.4364   -1.1665 C   0  0  0  0  0  0  0  0  0  0  0  0
    1.2986   -0.8833   -2.2828 F   0  0  0  0  0  0  0  0  0  0  0  0
    1.4101   -0.0387   -0.0408 C   0  0  0  0  0  0  0  0  0  0  0  0
  1  2  1  0
  2  3  4  0
  3  4  4  0
  4  5  4  0
  5  6  1  0
  5  7  4  0
  7  8  1  0
  7  9  4  0
  9  2  4  0
M  END
$$$$

     RDKit          3D

  9  9  0  0  0  0  0  0  0  0999 V2000
    1.2630   -2.4354   -0.1976 F   0  0  0  0  0  0  0  0  0  0  0  0
    0.6508   -1.2237   -0.1928 C   0  0  0  0  0  0  0  0  0  0  0  0
   -0.7422   -1.1649   -0.1001 C   0  0  0  0  0  0  0  0  0  0  0  0
   -1.4037    0.0728   -0.0618 C   0  0  0  0  0  0  0  0  0  0  0  0
   -0.6483    1.2573   -0.1351 C   0  0  0  0  0  0  0  0  0  0  0  0
   -1.2631    2.4677   -0.1552 F   0  0  0  0  0  0  0  0  0  0  0  0
    0.7466    1.2004   -0.2281 C   0  0  0  0  0  0  0  0  0  0  0  0
    1.4527    2.3564   -0.3222 F   0  0  0  0  0  0  0  0  0  0  0  0
    1.4070   -0.0406   -0.2551 C   0  0  0  0  0  0  0  0  0  0  0  0
  1  2  1  0
  2  3  4  0
  3  4  4  0
  4  5  4  0
  5  6  1  0
  5  7  4  0
  7  8  1  0
  7  9  4  0
  9  2  4  0
M  END
$$$$

     RDKit          3D

  9  9  0  0  0  0  0  0  0  0999 V2000
   -1.3114   -2.3669    0.4523 F   0  0  0  0  0  0  0  0  0  0  0  0
   -0.6754   -1.1910    0.2164 C   0  0  0  0  0  0  0  0  0  0  0  0
    0.7201   -1.1483    0.2734 C   0  0  0  0  0  0  0  0  0  0  0  0
    1.4067    0.0583    0.0646 C   0  0  0  0  0  0  0  0  0  0  0  0
    0.6736    1.2247   -0.2202 C   0  0  0  0  0  0  0  0  0  0  0  0
    1.3117    2.3946   -0.4803 F   0  0  0  0  0  0  0  0  0  0  0  0
   -0.7238    1.1838   -0.2777 C   0  0  0  0  0  0  0  0  0  0  0  0
   -1.4086    2.3172   -0.5783 F   0  0  0  0  0  0  0  0  0  0  0  0
   -1.4091   -0.0239   -0.0573 C   0  0  0  0  0  0  0  0  0  0  0  0
  1  2  1  0
  2  3  4  0
  3  4  4  0
  4  5  4  0
  5  6  1  0
  5  7  4  0
  7  8  1  0
  7  9  4  0
  9  2  4  0
M  END
$$$$

     RDKit          3D

  9  9  0  0  0  0  0  0  0  0999 V2000
    1.3769    2.0189   -1.3210 F   0  0  0  0  0  0  0  0  0  0  0  0
    0.7095    1.0250   -0.6809 C   0  0  0  0  0  0  0  0  0  0  0  0
   -0.6864    1.0632   -0.6329 C   0  0  0  0  0  0  0  0  0  0  0  0
   -1.4078    0.0352   -0.0054 C   0  0  0  0  0  0  0  0  0  0  0  0
   -0.7075   -1.0290    0.5914 C   0  0  0  0  0  0  0  0  0  0  0  0
   -1.3747   -2.0095    1.2526 F   0  0  0  0  0  0  0  0  0  0  0  0
    0.6903   -1.0689    0.5444 C   0  0  0  0  0  0  0  0  0  0  0  0
    1.3452   -2.0936    1.1486 F   0  0  0  0  0  0  0  0  0  0  0  0
    1.4094   -0.0434   -0.0944 C   0  0  0  0  0  0  0  0  0  0  0  0
  1  2  1  0
  2  3  4  0
  3  4  4  0
  4  5  4  0
  5  6  1  0
  5  7  4  0
  7  8  1  0
  7  9  4  0
  9  2  4  0
M  END
$$$$

     RDKit          3D

  9  9  0  0  0  0  0  0  0  0999 V2000
   -1.3780   -2.1828   -0.9854 F   0  0  0  0  0  0  0  0  0  0  0  0
   -0.7110   -1.0929   -0.5269 C   0  0  0  0  0  0  0  0  0  0  0  0
    0.6786   -1.0380   -0.6627 C   0  0  0  0  0  0  0  0  0  0  0  0
    1.4012    0.0609   -0.1717 C   0  0  0  0  0  0  0  0  0  0  0  0
    0.7078    1.1178    0.4457 C   0  0  0  0  0  0  0  0  0  0  0  0
    1.3730    2.2182    0.8817 F   0  0  0  0  0  0  0  0  0  0  0  0
   -0.6837    1.0646    0.5826 C   0  0  0  0  0  0  0  0  0  0  0  0
   -1.3336    2.1076    1.1602 F   0  0  0  0  0  0  0  0  0  0  0  0
   -1.4034   -0.0424    0.0996 C   0  0  0  0  0  0  0  0  0  0  0  0
  1  2  1  0
  2  3  4  0
  3  4  4  0
  4  5  4  0
  5  6  1  0
  5  7  4  0
  7  8  1  0
  7  9  4  0
  9  2  4  0
M  END
$$$$

     RDKit          3D

  9  9  0  0  0  0  0  0  0  0999 V2000
    1.4325    2.3163   -0.2861 F   0  0  0  0  0  0  0  0  0  0  0  0
    0.7345    1.1662   -0.1042 C   0  0  0  0  0  0  0  0  0  0  0  0
   -0.6621    1.2120   -0.0936 C   0  0  0  0  0  0  0  0  0  0  0  0
   -1.4124    0.0453    0.1201 C   0  0  0  0  0  0  0  0  0  0  0  0
   -0.7433   -1.1757    0.3169 C   0  0  0  0  0  0  0  0  0  0  0  0
   -1.4446   -2.3259    0.4866 F   0  0  0  0  0  0  0  0  0  0  0  0
    0.6550   -1.2239    0.3067 C   0  0  0  0  0  0  0  0  0  0  0  0
    1.2785   -2.4187    0.4728 F   0  0  0  0  0  0  0  0  0  0  0  0
    1.4048   -0.0528    0.0975 C   0  0  0  0  0  0  0  0  0  0  0  0
  1  2  1  0
  2  3  4  0
  3  4  4  0
  4  5  4  0
  5  6  1  0
  5  7  4  0
  7  8  1  0
  7  9  4  0
  9  2  4  0
M  END
$$$$

     RDKit          3D

  9  9  0  0  0  0  0  0  0  0999 V2000
   -1.4335    0.8744    2.2015 F   0  0  0  0  0  0  0  0  0  0  0  0
   -0.7357    0.4544    1.1154 C   0  0  0  0  0  0  0  0  0  0  0  0
    0.6601    0.5173    1.1370 C   0  0  0  0  0  0  0  0  0  0  0  0
    1.4115    0.0647    0.0413 C   0  0  0  0  0  0  0  0  0  0  0  0
    0.7440   -0.4475   -1.0853 C   0  0  0  0  0  0  0  0  0  0  0  0
    1.4444   -0.8556   -2.1745 F   0  0  0  0  0  0  0  0  0  0  0  0
   -0.6535   -0.5114   -1.1091 C   0  0  0  0  0  0  0  0  0  0  0  0
   -1.2767   -0.9856   -2.2184 F   0  0  0  0  0  0  0  0  0  0  0  0
   -1.4041   -0.0622   -0.0081 C   0  0  0  0  0  0  0  0  0  0  0  0
  1  2  1  0
  2  3  4  0
  3  4  4  0
  4  5  4  0
  5  6  1  0
  5  7  4  0
  7  8  1  0
  7  9  4  0
  9  2  4  0
M  END
$$$$

     RDKit          3D

  9  9  0  0  0  0  0  0  0  0999 V2000
    1.2782   -1.1515   -1.9731 F   0  0  0  0  0  0  0  0  0  0  0  0
    0.6570   -0.5942   -0.9023 C   0  0  0  0  0  0  0  0  0  0  0  0
   -0.7395   -0.5872   -0.8531 C   0  0  0  0  0  0  0  0  0  0  0  0
   -1.4122    0.0061    0.2264 C   0  0  0  0  0  0  0  0  0  0  0  0
   -0.6650    0.5889    1.2653 C   0  0  0  0  0  0  0  0  0  0  0  0
   -1.2892    1.1348    2.3404 F   0  0  0  0  0  0  0  0  0  0  0  0
    0.7334    0.5831    1.2180 C   0  0  0  0  0  0  0  0  0  0  0  0
    1.4338    1.1287    2.2454 F   0  0  0  0  0  0  0  0  0  0  0  0
    1.4052   -0.0074    0.1329 C   0  0  0  0  0  0  0  0  0  0  0  0
  1  2  1  0
  2  3  4  0
  3  4  4  0
  4  5  4  0
  5  6  1  0
  5  7  4  0
  7  8  1  0
  7  9  4  0
  9  2  4  0
M  END
$$$$

     RDKit          3D

  9  9  0  0  0  0  0  0  0  0999 V2000
   -0.8951   -0.2904    2.7090 F   0  0  0  0  0  0  0  0  0  0  0  0
   -0.4638   -0.1611    1.4283 C   0  0  0  0  0  0  0  0  0  0  0  0
    0.9089   -0.1787    1.1673 C   0  0  0  0  0  0  0  0  0  0  0  0
    1.3880   -0.0192   -0.1422 C   0  0  0  0  0  0  0  0  0  0  0  0
    0.4702    0.1516   -1.1938 C   0  0  0  0  0  0  0  0  0  0  0  0
    0.9045    0.2687   -2.4749 F   0  0  0  0  0  0  0  0  0  0  0  0
   -0.9047    0.1696   -0.9348 C   0  0  0  0  0  0  0  0  0  0  0  0
   -1.7726    0.3096   -1.9696 F   0  0  0  0  0  0  0  0  0  0  0  0
   -1.3822    0.0147    0.3787 C   0  0  0  0  0  0  0  0  0  0  0  0
  1  2  1  0
  2  3  4  0
  3  4  4  0
  4  5  4  0
  5  6  1  0
  5  7  4  0
  7  8  1  0
  7  9  4  0
  9  2  4  0
M  END
$$$$

     RDKit          3D

  9  9  0  0  0  0  0  0  0  0999 V2000
    1.4783    1.7062    1.5742 F   0  0  0  0  0  0  0  0  0  0  0  0
    0.7596    0.8510    0.8028 C   0  0  0  0  0  0  0  0  0  0  0  0
   -0.6229    0.7660    0.9871 C   0  0  0  0  0  0  0  0  0  0  0  0
   -1.3980   -0.0876    0.1868 C   0  0  0  0  0  0  0  0  0  0  0  0
   -0.7670   -0.8648   -0.8007 C   0  0  0  0  0  0  0  0  0  0  0  0
   -1.4871   -1.7279   -1.5623 F   0  0  0  0  0  0  0  0  0  0  0  0
    0.6172   -0.7813   -0.9869 C   0  0  0  0  0  0  0  0  0  0  0  0
    1.2076   -1.5608   -1.9290 F   0  0  0  0  0  0  0  0  0  0  0  0
    1.3911    0.0785   -0.1874 C   0  0  0  0  0  0  0  0  0  0  0  0
  1  2  1  0
  2  3  4  0
  3  4  4  0
  4  5  4  0
  5  6  1  0
  5  7  4  0
  7  8  1  0
  7  9  4  0
  9  2  4  0
M  END
$$$$

     RDKit          3D

  9  9  0  0  0  0  0  0  0  0999 V2000
   -1.3196   -0.3969    2.3403 F   0  0  0  0  0  0  0  0  0  0  0  0
   -0.6775   -0.2151    1.1581 C   0  0  0  0  0  0  0  0  0  0  0  0
    0.7196   -0.1958    1.1381 C   0  0  0  0  0  0  0  0  0  0  0  0
    1.4129    0.0181   -0.0633 C   0  0  0  0  0  0  0  0  0  0  0  0
    0.6859    0.2060   -1.2522 C   0  0  0  0  0  0  0  0  0  0  0  0
    1.3313    0.3757   -2.4347 F   0  0  0  0  0  0  0  0  0  0  0  0
   -0.7130    0.1872   -1.2346 C   0  0  0  0  0  0  0  0  0  0  0  0
   -1.3930    0.3449   -2.3993 F   0  0  0  0  0  0  0  0  0  0  0  0
   -1.4056   -0.0222   -0.0288 C   0  0  0  0  0  0  0  0  0  0  0  0
  1  2  1  0
  2  3  4  0
  3  4  4  0
  4  5  4  0
  5  6  1  0
  5  7  4  0
  7  8  1  0
  7  9  4  0
  9  2  4  0
M  END
$$$$

     RDKit          3D

  9  9  0  0  0  0  0  0  0  0999 V2000
   -1.2780   -0.2422   -2.4255 F   0  0  0  0  0  0  0  0  0  0  0  0
   -0.6566   -0.1371   -1.2230 C   0  0  0  0  0  0  0  0  0  0  0  0
    0.7400   -0.1291   -1.1768 C   0  0  0  0  0  0  0  0  0  0  0  0
    1.4123    0.0066    0.0476 C   0  0  0  0  0  0  0  0  0  0  0  0
    0.6648    0.1274    1.2325 C   0  0  0  0  0  0  0  0  0  0  0  0
    1.2894    0.2205    2.4345 F   0  0  0  0  0  0  0  0  0  0  0  0
   -0.7337    0.1197    1.1886 C   0  0  0  0  0  0  0  0  0  0  0  0
   -1.4339    0.2115    2.3483 F   0  0  0  0  0  0  0  0  0  0  0  0
   -1.4052   -0.0112   -0.0399 C   0  0  0  0  0  0  0  0  0  0  0  0
  1  2  1  0
  2  3  4  0
  3  4  4  0
  4  5  4  0
  5  6  1  0
  5  7  4  0
  7  8  1  0
  7  9  4  0
  9  2  4  0
M  END
$$$$
