
     RDKit          3D

  6  6  0  0  0  0  0  0  0  0999 V2000
    0.6781    1.0034   -1.2438 N   0  0  0  0  0  0  0  0  0  0  0  0
   -0.6059    0.6641   -1.1399 N   0  0  0  0  0  0  0  0  0  0  0  0
   -0.9703   -0.4450   -0.4508 C   0  0  0  0  0  0  0  0  0  0  0  0
   -0.0084   -1.2096    0.1193 N   0  0  0  0  0  0  0  0  0  0  0  0
    1.2751   -0.8707    0.0163 N   0  0  0  0  0  0  0  0  0  0  0  0
    1.6416    0.2517   -0.6518 C   0  0  0  0  0  0  0  0  0  0  0  0
  1  2  4  0
  2  3  4  0
  3  4  4  0
  4  5  4  0
  5  6  4  0
  6  1  4  0
M  END
$$$$

     RDKit          3D

  6  6  0  0  0  0  0  0  0  0999 V2000
    0.6781    1.0034   -1.2438 N   0  0  0  0  0  0  0  0  0  0  0  0
   -0.6059    0.6641   -1.1399 N   0  0  0  0  0  0  0  0  0  0  0  0
   -0.9703   -0.4450   -0.4508 C   0  0  0  0  0  0  0  0  0  0  0  0
   -0.0084   -1.2096    0.1193 N   0  0  0  0  0  0  0  0  0  0  0  0
    1.2751   -0.8707    0.0163 N   0  0  0  0  0  0  0  0  0  0  0  0
    1.6416    0.2517   -0.6518 C   0  0  0  0  0  0  0  0  0  0  0  0
  1  2  4  0
  2  3  4  0
  3  4  4  0
  4  5  4  0
  5  6  4  0
  6  1  4  0
M  END
$$$$

     RDKit          3D

  6  6  0  0  0  0  0  0  0  0999 V2000
    0.4961    0.3992   -1.9214 N   0  0  0  0  0  0  0  0  0  0  0  0
   -0.7900    0.3771   -1.5749 N   0  0  0  0  0  0  0  0  0  0  0  0
   -1.1606   -0.0177   -0.3309 C   0  0  0  0  0  0  0  0  0  0  0  0
   -0.2041   -0.4041    0.5490 N   0  0  0  0  0  0  0  0  0  0  0  0
    1.0812   -0.3793    0.2024 N   0  0  0  0  0  0  0  0  0  0  0  0
    1.4580    0.0372   -1.0334 C   0  0  0  0  0  0  0  0  0  0  0  0
  1  2  4  0
  2  3  4  0
  3  4  4  0
  4  5  4  0
  5  6  4  0
  6  1  4  0
M  END
$$$$

     RDKit          3D

  6  6  0  0  0  0  0  0  0  0999 V2000
    0.4961    0.3992   -1.9214 N   0  0  0  0  0  0  0  0  0  0  0  0
   -0.7900    0.3771   -1.5749 N   0  0  0  0  0  0  0  0  0  0  0  0
   -1.1606   -0.0177   -0.3309 C   0  0  0  0  0  0  0  0  0  0  0  0
   -0.2041   -0.4041    0.5490 N   0  0  0  0  0  0  0  0  0  0  0  0
    1.0812   -0.3793    0.2024 N   0  0  0  0  0  0  0  0  0  0  0  0
    1.4580    0.0372   -1.0334 C   0  0  0  0  0  0  0  0  0  0  0  0
  1  2  4  0
  2  3  4  0
  3  4  4  0
  4  5  4  0
  5  6  4  0
  6  1  4  0
M  END
$$$$

     RDKit          3D

  6  6  0  0  0  0  0  0  0  0999 V2000
    0.8217    1.1318    1.2254 N   0  0  0  0  0  0  0  0  0  0  0  0
   -0.4552    0.7530    1.2090 N   0  0  0  0  0  0  0  0  0  0  0  0
   -1.0265    0.3114    0.0606 C   0  0  0  0  0  0  0  0  0  0  0  0
   -0.2849    0.2808   -1.0745 N   0  0  0  0  0  0  0  0  0  0  0  0
    0.9918    0.6584   -1.0567 N   0  0  0  0  0  0  0  0  0  0  0  0
    1.5745    1.0736    0.0966 C   0  0  0  0  0  0  0  0  0  0  0  0
  1  2  4  0
  2  3  4  0
  3  4  4  0
  4  5  4  0
  5  6  4  0
  6  1  4  0
M  END
$$$$

     RDKit          3D

  6  6  0  0  0  0  0  0  0  0999 V2000
    0.8217    1.1318    1.2254 N   0  0  0  0  0  0  0  0  0  0  0  0
   -0.4552    0.7530    1.2090 N   0  0  0  0  0  0  0  0  0  0  0  0
   -1.0265    0.3114    0.0606 C   0  0  0  0  0  0  0  0  0  0  0  0
   -0.2849    0.2808   -1.0745 N   0  0  0  0  0  0  0  0  0  0  0  0
    0.9918    0.6584   -1.0567 N   0  0  0  0  0  0  0  0  0  0  0  0
    1.5745    1.0736    0.0966 C   0  0  0  0  0  0  0  0  0  0  0  0
  1  2  4  0
  2  3  4  0
  3  4  4  0
  4  5  4  0
  5  6  4  0
  6  1  4  0
M  END
$$$$

     RDKit          3D

  6  6  0  0  0  0  0  0  0  0999 V2000
    0.1673   -1.3459    0.8736 N   0  0  0  0  0  0  0  0  0  0  0  0
   -0.9596   -0.7487    0.4899 N   0  0  0  0  0  0  0  0  0  0  0  0
   -0.9289    0.4873   -0.0675 C   0  0  0  0  0  0  0  0  0  0  0  0
    0.2680    1.1037   -0.2333 N   0  0  0  0  0  0  0  0  0  0  0  0
    1.3944    0.5058    0.1511 N   0  0  0  0  0  0  0  0  0  0  0  0
    1.3686   -0.7350    0.7022 C   0  0  0  0  0  0  0  0  0  0  0  0
  1  2  4  0
  2  3  4  0
  3  4  4  0
  4  5  4  0
  5  6  4  0
  6  1  4  0
M  END
$$$$

     RDKit          3D

  6  6  0  0  0  0  0  0  0  0999 V2000
    0.1673   -1.3459    0.8736 N   0  0  0  0  0  0  0  0  0  0  0  0
   -0.9596   -0.7487    0.4899 N   0  0  0  0  0  0  0  0  0  0  0  0
   -0.9289    0.4873   -0.0675 C   0  0  0  0  0  0  0  0  0  0  0  0
    0.2680    1.1037   -0.2333 N   0  0  0  0  0  0  0  0  0  0  0  0
    1.3944    0.5058    0.1511 N   0  0  0  0  0  0  0  0  0  0  0  0
    1.3686   -0.7350    0.7022 C   0  0  0  0  0  0  0  0  0  0  0  0
  1  2  4  0
  2  3  4  0
  3  4  4  0
  4  5  4  0
  5  6  4  0
  6  1  4  0
M  END
$$$$

     RDKit          3D

  6  6  0  0  0  0  0  0  0  0999 V2000
    1.2166   -1.6208    0.2023 N   0  0  0  0  0  0  0  0  0  0  0  0
   -0.0988   -1.8301    0.2114 N   0  0  0  0  0  0  0  0  0  0  0  0
   -0.9499   -0.8780   -0.2464 C   0  0  0  0  0  0  0  0  0  0  0  0
   -0.4394    0.2784   -0.7373 N   0  0  0  0  0  0  0  0  0  0  0  0
    0.8756    0.4867   -0.7459 N   0  0  0  0  0  0  0  0  0  0  0  0
    1.7286   -0.4507   -0.2606 C   0  0  0  0  0  0  0  0  0  0  0  0
  1  2  4  0
  2  3  4  0
  3  4  4  0
  4  5  4  0
  5  6  4  0
  6  1  4  0
M  END
$$$$

     RDKit          3D

  6  6  0  0  0  0  0  0  0  0999 V2000
    1.2166   -1.6208    0.2023 N   0  0  0  0  0  0  0  0  0  0  0  0
   -0.0988   -1.8301    0.2114 N   0  0  0  0  0  0  0  0  0  0  0  0
   -0.9499   -0.8780   -0.2464 C   0  0  0  0  0  0  0  0  0  0  0  0
   -0.4394    0.2784   -0.7373 N   0  0  0  0  0  0  0  0  0  0  0  0
    0.8756    0.4867   -0.7459 N   0  0  0  0  0  0  0  0  0  0  0  0
    1.7286   -0.4507   -0.2606 C   0  0  0  0  0  0  0  0  0  0  0  0
  1  2  4  0
  2  3  4  0
  3  4  4  0
  4  5  4  0
  5  6  4  0
  6  1  4  0
M  END
$$$$

     RDKit          3D

  6  6  0  0  0  0  0  0  0  0999 V2000
    0.9554   -0.0754   -1.0029 N   0  0  0  0  0  0  0  0  0  0  0  0
   -0.3364    0.2454   -1.0419 N   0  0  0  0  0  0  0  0  0  0  0  0
   -1.1831   -0.1924   -0.0771 C   0  0  0  0  0  0  0  0  0  0  0  0
   -0.6972   -0.9750    0.9187 N   0  0  0  0  0  0  0  0  0  0  0  0
    0.5954   -1.2940    0.9569 N   0  0  0  0  0  0  0  0  0  0  0  0
    1.4509   -0.8376    0.0050 C   0  0  0  0  0  0  0  0  0  0  0  0
  1  2  4  0
  2  3  4  0
  3  4  4  0
  4  5  4  0
  5  6  4  0
  6  1  4  0
M  END
$$$$

     RDKit          3D

  6  6  0  0  0  0  0  0  0  0999 V2000
    0.9554   -0.0754   -1.0029 N   0  0  0  0  0  0  0  0  0  0  0  0
   -0.3364    0.2454   -1.0419 N   0  0  0  0  0  0  0  0  0  0  0  0
   -1.1831   -0.1924   -0.0771 C   0  0  0  0  0  0  0  0  0  0  0  0
   -0.6972   -0.9750    0.9187 N   0  0  0  0  0  0  0  0  0  0  0  0
    0.5954   -1.2940    0.9569 N   0  0  0  0  0  0  0  0  0  0  0  0
    1.4509   -0.8376    0.0050 C   0  0  0  0  0  0  0  0  0  0  0  0
  1  2  4  0
  2  3  4  0
  3  4  4  0
  4  5  4  0
  5  6  4  0
  6  1  4  0
M  END
$$$$

     RDKit          3D

  6  6  0  0  0  0  0  0  0  0999 V2000
   -1.0306   -0.5155   -1.1771 N   0  0  0  0  0  0  0  0  0  0  0  0
    0.2656   -0.2137   -1.2297 N   0  0  0  0  0  0  0  0  0  0  0  0
    1.0373   -0.2986   -0.1170 C   0  0  0  0  0  0  0  0  0  0  0  0
    0.4719   -0.7082    1.0462 N   0  0  0  0  0  0  0  0  0  0  0  0
   -0.8241   -1.0106    1.0978 N   0  0  0  0  0  0  0  0  0  0  0  0
   -1.6034   -0.9027   -0.0083 C   0  0  0  0  0  0  0  0  0  0  0  0
  1  2  4  0
  2  3  4  0
  3  4  4  0
  4  5  4  0
  5  6  4  0
  6  1  4  0
M  END
$$$$

     RDKit          3D

  6  6  0  0  0  0  0  0  0  0999 V2000
   -1.0306   -0.5155   -1.1771 N   0  0  0  0  0  0  0  0  0  0  0  0
    0.2656   -0.2137   -1.2297 N   0  0  0  0  0  0  0  0  0  0  0  0
    1.0373   -0.2986   -0.1170 C   0  0  0  0  0  0  0  0  0  0  0  0
    0.4719   -0.7082    1.0462 N   0  0  0  0  0  0  0  0  0  0  0  0
   -0.8241   -1.0106    1.0978 N   0  0  0  0  0  0  0  0  0  0  0  0
   -1.6034   -0.9027   -0.0083 C   0  0  0  0  0  0  0  0  0  0  0  0
  1  2  4  0
  2  3  4  0
  3  4  4  0
  4  5  4  0
  5  6  4  0
  6  1  4  0
M  END
$$$$

     RDKit          3D

  6  6  0  0  0  0  0  0  0  0999 V2000
    0.5949    0.5524    1.1650 N   0  0  0  0  0  0  0  0  0  0  0  0
   -0.6502    0.4519    0.7039 N   0  0  0  0  0  0  0  0  0  0  0  0
   -0.9880   -0.5375   -0.1556 C   0  0  0  0  0  0  0  0  0  0  0  0
   -0.0445   -1.4335   -0.5238 N   0  0  0  0  0  0  0  0  0  0  0  0
    1.1996   -1.3333   -0.0587 N   0  0  0  0  0  0  0  0  0  0  0  0
    1.5490   -0.3310    0.7844 C   0  0  0  0  0  0  0  0  0  0  0  0
  1  2  4  0
  2  3  4  0
  3  4  4  0
  4  5  4  0
  5  6  4  0
  6  1  4  0
M  END
$$$$

     RDKit          3D

  6  6  0  0  0  0  0  0  0  0999 V2000
    0.5949    0.5524    1.1650 N   0  0  0  0  0  0  0  0  0  0  0  0
   -0.6502    0.4519    0.7039 N   0  0  0  0  0  0  0  0  0  0  0  0
   -0.9880   -0.5375   -0.1556 C   0  0  0  0  0  0  0  0  0  0  0  0
   -0.0445   -1.4335   -0.5238 N   0  0  0  0  0  0  0  0  0  0  0  0
    1.1996   -1.3333   -0.0587 N   0  0  0  0  0  0  0  0  0  0  0  0
    1.5490   -0.3310    0.7844 C   0  0  0  0  0  0  0  0  0  0  0  0
  1  2  4  0
  2  3  4  0
  3  4  4  0
  4  5  4  0
  5  6  4  0
  6  1  4  0
M  END
$$$$

     RDKit          3D

  6  6  0  0  0  0  0  0  0  0999 V2000
   -0.9863   -0.2436   -0.5440 N   0  0  0  0  0  0  0  0  0  0  0  0
    0.3149   -0.4425   -0.7473 N   0  0  0  0  0  0  0  0  0  0  0  0
    1.2357    0.2897   -0.0727 C   0  0  0  0  0  0  0  0  0  0  0  0
    0.8112    1.2299    0.8080 N   0  0  0  0  0  0  0  0  0  0  0  0
   -0.4903    1.4273    1.0099 N   0  0  0  0  0  0  0  0  0  0  0  0
   -1.4167    0.6866    0.3465 C   0  0  0  0  0  0  0  0  0  0  0  0
  1  2  4  0
  2  3  4  0
  3  4  4  0
  4  5  4  0
  5  6  4  0
  6  1  4  0
M  END
$$$$

     RDKit          3D

  6  6  0  0  0  0  0  0  0  0999 V2000
   -0.9863   -0.2436   -0.5440 N   0  0  0  0  0  0  0  0  0  0  0  0
    0.3149   -0.4425   -0.7473 N   0  0  0  0  0  0  0  0  0  0  0  0
    1.2357    0.2897   -0.0727 C   0  0  0  0  0  0  0  0  0  0  0  0
    0.8112    1.2299    0.8080 N   0  0  0  0  0  0  0  0  0  0  0  0
   -0.4903    1.4273    1.0099 N   0  0  0  0  0  0  0  0  0  0  0  0
   -1.4167    0.6866    0.3465 C   0  0  0  0  0  0  0  0  0  0  0  0
  1  2  4  0
  2  3  4  0
  3  4  4  0
  4  5  4  0
  5  6  4  0
  6  1  4  0
M  END
$$$$

     RDKit          3D

  6  6  0  0  0  0  0  0  0  0999 V2000
    1.0092    0.3071   -1.2373 N   0  0  0  0  0  0  0  0  0  0  0  0
   -0.3173    0.4120   -1.1807 N   0  0  0  0  0  0  0  0  0  0  0  0
   -1.0207   -0.2555   -0.2320 C   0  0  0  0  0  0  0  0  0  0  0  0
   -0.3539   -1.0452    0.6467 N   0  0  0  0  0  0  0  0  0  0  0  0
    0.9726   -1.1484    0.5899 N   0  0  0  0  0  0  0  0  0  0  0  0
    1.6813   -0.4624   -0.3425 C   0  0  0  0  0  0  0  0  0  0  0  0
  1  2  4  0
  2  3  4  0
  3  4  4  0
  4  5  4  0
  5  6  4  0
  6  1  4  0
M  END
$$$$

     RDKit          3D

  6  6  0  0  0  0  0  0  0  0999 V2000
    1.0092    0.3071   -1.2373 N   0  0  0  0  0  0  0  0  0  0  0  0
   -0.3173    0.4120   -1.1807 N   0  0  0  0  0  0  0  0  0  0  0  0
   -1.0207   -0.2555   -0.2320 C   0  0  0  0  0  0  0  0  0  0  0  0
   -0.3539   -1.0452    0.6467 N   0  0  0  0  0  0  0  0  0  0  0  0
    0.9726   -1.1484    0.5899 N   0  0  0  0  0  0  0  0  0  0  0  0
    1.6813   -0.4624   -0.3425 C   0  0  0  0  0  0  0  0  0  0  0  0
  1  2  4  0
  2  3  4  0
  3  4  4  0
  4  5  4  0
  5  6  4  0
  6  1  4  0
M  END
$$$$

     RDKit          3D

  6  6  0  0  0  0  0  0  0  0999 V2000
    0.9020   -0.4142    1.4662 N   0  0  0  0  0  0  0  0  0  0  0  0
   -0.4082   -0.2425    1.3004 N   0  0  0  0  0  0  0  0  0  0  0  0
   -0.9666   -0.3572    0.0693 C   0  0  0  0  0  0  0  0  0  0  0  0
   -0.1741   -0.6699   -0.9871 N   0  0  0  0  0  0  0  0  0  0  0  0
    1.1361   -0.8429   -0.8204 N   0  0  0  0  0  0  0  0  0  0  0  0
    1.7007   -0.6974    0.4057 C   0  0  0  0  0  0  0  0  0  0  0  0
  1  2  4  0
  2  3  4  0
  3  4  4  0
  4  5  4  0
  5  6  4  0
  6  1  4  0
M  END
$$$$

     RDKit          3D

  6  6  0  0  0  0  0  0  0  0999 V2000
    0.9020   -0.4142    1.4662 N   0  0  0  0  0  0  0  0  0  0  0  0
   -0.4082   -0.2425    1.3004 N   0  0  0  0  0  0  0  0  0  0  0  0
   -0.9666   -0.3572    0.0693 C   0  0  0  0  0  0  0  0  0  0  0  0
   -0.1741   -0.6699   -0.9871 N   0  0  0  0  0  0  0  0  0  0  0  0
    1.1361   -0.8429   -0.8204 N   0  0  0  0  0  0  0  0  0  0  0  0
    1.7007   -0.6974    0.4057 C   0  0  0  0  0  0  0  0  0  0  0  0
  1  2  4  0
  2  3  4  0
  3  4  4  0
  4  5  4  0
  5  6  4  0
  6  1  4  0
M  END
$$$$

     RDKit          3D

  6  6  0  0  0  0  0  0  0  0999 V2000
    0.9003   -0.5589    0.2087 N   0  0  0  0  0  0  0  0  0  0  0  0
   -0.4187   -0.6741    0.3583 N   0  0  0  0  0  0  0  0  0  0  0  0
   -1.2580    0.1907   -0.2647 C   0  0  0  0  0  0  0  0  0  0  0  0
   -0.7349    1.1744   -1.0382 N   0  0  0  0  0  0  0  0  0  0  0  0
    0.5837    1.2868   -1.1871 N   0  0  0  0  0  0  0  0  0  0  0  0
    1.4290    0.4272   -0.5605 C   0  0  0  0  0  0  0  0  0  0  0  0
  1  2  4  0
  2  3  4  0
  3  4  4  0
  4  5  4  0
  5  6  4  0
  6  1  4  0
M  END
$$$$

     RDKit          3D

  6  6  0  0  0  0  0  0  0  0999 V2000
    0.9003   -0.5589    0.2087 N   0  0  0  0  0  0  0  0  0  0  0  0
   -0.4187   -0.6741    0.3583 N   0  0  0  0  0  0  0  0  0  0  0  0
   -1.2580    0.1907   -0.2647 C   0  0  0  0  0  0  0  0  0  0  0  0
   -0.7349    1.1744   -1.0382 N   0  0  0  0  0  0  0  0  0  0  0  0
    0.5837    1.2868   -1.1871 N   0  0  0  0  0  0  0  0  0  0  0  0
    1.4290    0.4272   -0.5605 C   0  0  0  0  0  0  0  0  0  0  0  0
  1  2  4  0
  2  3  4  0
  3  4  4  0
  4  5  4  0
  5  6  4  0
  6  1  4  0
M  END
$$$$

     RDKit          3D

  6  6  0  0  0  0  0  0  0  0999 V2000
    0.9641   -0.5216    0.7303 N   0  0  0  0  0  0  0  0  0  0  0  0
   -0.3430   -0.3000    0.8543 N   0  0  0  0  0  0  0  0  0  0  0  0
   -1.1450   -0.2864   -0.2405 C   0  0  0  0  0  0  0  0  0  0  0  0
   -0.5984   -0.5136   -1.4615 N   0  0  0  0  0  0  0  0  0  0  0  0
    0.7091   -0.7374   -1.5851 N   0  0  0  0  0  0  0  0  0  0  0  0
    1.5171   -0.7304   -0.4933 C   0  0  0  0  0  0  0  0  0  0  0  0
  1  2  4  0
  2  3  4  0
  3  4  4  0
  4  5  4  0
  5  6  4  0
  6  1  4  0
M  END
$$$$

     RDKit          3D

  6  6  0  0  0  0  0  0  0  0999 V2000
    0.9641   -0.5216    0.7303 N   0  0  0  0  0  0  0  0  0  0  0  0
   -0.3430   -0.3000    0.8543 N   0  0  0  0  0  0  0  0  0  0  0  0
   -1.1450   -0.2864   -0.2405 C   0  0  0  0  0  0  0  0  0  0  0  0
   -0.5984   -0.5136   -1.4615 N   0  0  0  0  0  0  0  0  0  0  0  0
    0.7091   -0.7374   -1.5851 N   0  0  0  0  0  0  0  0  0  0  0  0
    1.5171   -0.7304   -0.4933 C   0  0  0  0  0  0  0  0  0  0  0  0
  1  2  4  0
  2  3  4  0
  3  4  4  0
  4  5  4  0
  5  6  4  0
  6  1  4  0
M  END
$$$$

     RDKit          3D

  6  6  0  0  0  0  0  0  0  0999 V2000
   -1.1674   -0.4196    1.0790 N   0  0  0  0  0  0  0  0  0  0  0  0
    0.1106   -0.7944    1.1037 N   0  0  0  0  0  0  0  0  0  0  0  0
    1.0492   -0.0841    0.4293 C   0  0  0  0  0  0  0  0  0  0  0  0
    0.6660    1.0120   -0.2716 N   0  0  0  0  0  0  0  0  0  0  0  0
   -0.6120    1.3866   -0.2966 N   0  0  0  0  0  0  0  0  0  0  0  0
   -1.5555    0.6706    0.3680 C   0  0  0  0  0  0  0  0  0  0  0  0
  1  2  4  0
  2  3  4  0
  3  4  4  0
  4  5  4  0
  5  6  4  0
  6  1  4  0
M  END
$$$$

     RDKit          3D

  6  6  0  0  0  0  0  0  0  0999 V2000
   -1.1674   -0.4196    1.0790 N   0  0  0  0  0  0  0  0  0  0  0  0
    0.1106   -0.7944    1.1037 N   0  0  0  0  0  0  0  0  0  0  0  0
    1.0492   -0.0841    0.4293 C   0  0  0  0  0  0  0  0  0  0  0  0
    0.6660    1.0120   -0.2716 N   0  0  0  0  0  0  0  0  0  0  0  0
   -0.6120    1.3866   -0.2966 N   0  0  0  0  0  0  0  0  0  0  0  0
   -1.5555    0.6706    0.3680 C   0  0  0  0  0  0  0  0  0  0  0  0
  1  2  4  0
  2  3  4  0
  3  4  4  0
  4  5  4  0
  5  6  4  0
  6  1  4  0
M  END
$$$$

     RDKit          3D

  6  6  0  0  0  0  0  0  0  0999 V2000
    0.7435    1.3426   -1.1853 N   0  0  0  0  0  0  0  0  0  0  0  0
   -0.5498    1.0241   -1.1667 N   0  0  0  0  0  0  0  0  0  0  0  0
   -1.0724    0.3291   -0.1251 C   0  0  0  0  0  0  0  0  0  0  0  0
   -0.2596   -0.0306    0.9007 N   0  0  0  0  0  0  0  0  0  0  0  0
    1.0334    0.2877    0.8813 N   0  0  0  0  0  0  0  0  0  0  0  0
    1.5637    0.9687   -0.1682 C   0  0  0  0  0  0  0  0  0  0  0  0
  1  2  4  0
  2  3  4  0
  3  4  4  0
  4  5  4  0
  5  6  4  0
  6  1  4  0
M  END
$$$$

     RDKit          3D

  6  6  0  0  0  0  0  0  0  0999 V2000
    0.7435    1.3426   -1.1853 N   0  0  0  0  0  0  0  0  0  0  0  0
   -0.5498    1.0241   -1.1667 N   0  0  0  0  0  0  0  0  0  0  0  0
   -1.0724    0.3291   -0.1251 C   0  0  0  0  0  0  0  0  0  0  0  0
   -0.2596   -0.0306    0.9007 N   0  0  0  0  0  0  0  0  0  0  0  0
    1.0334    0.2877    0.8813 N   0  0  0  0  0  0  0  0  0  0  0  0
    1.5637    0.9687   -0.1682 C   0  0  0  0  0  0  0  0  0  0  0  0
  1  2  4  0
  2  3  4  0
  3  4  4  0
  4  5  4  0
  5  6  4  0
  6  1  4  0
M  END
$$$$

     RDKit          3D

  3  2  0  0  0  0  0  0  0  0999 V2000
   -0.0597    1.6922    0.6444 F   0  0  0  0  0  0  0  0  0  0  0  0
    0.4042    0.5170    0.1471 C   0  0  0  0  0  0  0  0  0  0  0  0
   -0.3908   -0.5499    0.0644 C   0  0  0  0  0  0  0  0  0  0  0  0
  1  2  1  0
  2  3  2  0
M  END
$$$$

     RDKit          3D

  3  2  0  0  0  0  0  0  0  0999 V2000
   -0.0597    1.6922    0.6444 F   0  0  0  0  0  0  0  0  0  0  0  0
    0.4042    0.5170    0.1471 C   0  0  0  0  0  0  0  0  0  0  0  0
   -0.3908   -0.5499    0.0644 C   0  0  0  0  0  0  0  0  0  0  0  0
  1  2  1  0
  2  3  2  0
M  END
$$$$

     RDKit          3D

  3  2  0  0  0  0  0  0  0  0999 V2000
   -0.0597    1.6922    0.6444 F   0  0  0  0  0  0  0  0  0  0  0  0
    0.4042    0.5170    0.1471 C   0  0  0  0  0  0  0  0  0  0  0  0
   -0.3908   -0.5499    0.0644 C   0  0  0  0  0  0  0  0  0  0  0  0
  1  2  1  0
  2  3  2  0
M  END
$$$$

     RDKit          3D

  3  2  0  0  0  0  0  0  0  0999 V2000
   -0.7159   -1.5966    0.6436 F   0  0  0  0  0  0  0  0  0  0  0  0
   -0.5728   -0.3629    0.0951 C   0  0  0  0  0  0  0  0  0  0  0  0
    0.5414    0.3437    0.2865 C   0  0  0  0  0  0  0  0  0  0  0  0
  1  2  1  0
  2  3  2  0
M  END
$$$$

     RDKit          3D

  3  2  0  0  0  0  0  0  0  0999 V2000
   -0.7159   -1.5966    0.6436 F   0  0  0  0  0  0  0  0  0  0  0  0
   -0.5728   -0.3629    0.0951 C   0  0  0  0  0  0  0  0  0  0  0  0
    0.5414    0.3437    0.2865 C   0  0  0  0  0  0  0  0  0  0  0  0
  1  2  1  0
  2  3  2  0
M  END
$$$$

     RDKit          3D

  3  2  0  0  0  0  0  0  0  0999 V2000
   -0.7159   -1.5966    0.6436 F   0  0  0  0  0  0  0  0  0  0  0  0
   -0.5728   -0.3629    0.0951 C   0  0  0  0  0  0  0  0  0  0  0  0
    0.5414    0.3437    0.2865 C   0  0  0  0  0  0  0  0  0  0  0  0
  1  2  1  0
  2  3  2  0
M  END
$$$$

     RDKit          3D

  3  2  0  0  0  0  0  0  0  0999 V2000
    0.6269   -1.1208    1.3476 F   0  0  0  0  0  0  0  0  0  0  0  0
   -0.2272   -0.3538    0.6226 C   0  0  0  0  0  0  0  0  0  0  0  0
    0.2085    0.3529   -0.4205 C   0  0  0  0  0  0  0  0  0  0  0  0
  1  2  1  0
  2  3  2  0
M  END
$$$$

     RDKit          3D

  3  2  0  0  0  0  0  0  0  0999 V2000
    0.6269   -1.1208    1.3476 F   0  0  0  0  0  0  0  0  0  0  0  0
   -0.2272   -0.3538    0.6226 C   0  0  0  0  0  0  0  0  0  0  0  0
    0.2085    0.3529   -0.4205 C   0  0  0  0  0  0  0  0  0  0  0  0
  1  2  1  0
  2  3  2  0
M  END
$$$$

     RDKit          3D

  3  2  0  0  0  0  0  0  0  0999 V2000
    0.6269   -1.1208    1.3476 F   0  0  0  0  0  0  0  0  0  0  0  0
   -0.2272   -0.3538    0.6226 C   0  0  0  0  0  0  0  0  0  0  0  0
    0.2085    0.3529   -0.4205 C   0  0  0  0  0  0  0  0  0  0  0  0
  1  2  1  0
  2  3  2  0
M  END
$$$$

     RDKit          3D

  3  2  0  0  0  0  0  0  0  0999 V2000
    0.5030    1.6475   -0.3370 F   0  0  0  0  0  0  0  0  0  0  0  0
   -0.2514    0.5312   -0.1694 C   0  0  0  0  0  0  0  0  0  0  0  0
    0.2325   -0.5282    0.4793 C   0  0  0  0  0  0  0  0  0  0  0  0
  1  2  1  0
  2  3  2  0
M  END
$$$$

     RDKit          3D

  3  2  0  0  0  0  0  0  0  0999 V2000
    0.5030    1.6475   -0.3370 F   0  0  0  0  0  0  0  0  0  0  0  0
   -0.2514    0.5312   -0.1694 C   0  0  0  0  0  0  0  0  0  0  0  0
    0.2325   -0.5282    0.4793 C   0  0  0  0  0  0  0  0  0  0  0  0
  1  2  1  0
  2  3  2  0
M  END
$$$$

     RDKit          3D

  3  2  0  0  0  0  0  0  0  0999 V2000
    0.5030    1.6475   -0.3370 F   0  0  0  0  0  0  0  0  0  0  0  0
   -0.2514    0.5312   -0.1694 C   0  0  0  0  0  0  0  0  0  0  0  0
    0.2325   -0.5282    0.4793 C   0  0  0  0  0  0  0  0  0  0  0  0
  1  2  1  0
  2  3  2  0
M  END
$$$$

     RDKit          3D

  3  2  0  0  0  0  0  0  0  0999 V2000
   -1.4992   -2.9798   -0.8202 F   0  0  0  0  0  0  0  0  0  0  0  0
   -0.7804   -1.8878   -0.4616 C   0  0  0  0  0  0  0  0  0  0  0  0
    0.5000   -2.0363   -0.1084 C   0  0  0  0  0  0  0  0  0  0  0  0
  1  2  1  0
  2  3  2  0
M  END
$$$$

     RDKit          3D

  3  2  0  0  0  0  0  0  0  0999 V2000
   -1.4992   -2.9798   -0.8202 F   0  0  0  0  0  0  0  0  0  0  0  0
   -0.7804   -1.8878   -0.4616 C   0  0  0  0  0  0  0  0  0  0  0  0
    0.5000   -2.0363   -0.1084 C   0  0  0  0  0  0  0  0  0  0  0  0
  1  2  1  0
  2  3  2  0
M  END
$$$$

     RDKit          3D

  3  2  0  0  0  0  0  0  0  0999 V2000
   -1.4992   -2.9798   -0.8202 F   0  0  0  0  0  0  0  0  0  0  0  0
   -0.7804   -1.8878   -0.4616 C   0  0  0  0  0  0  0  0  0  0  0  0
    0.5000   -2.0363   -0.1084 C   0  0  0  0  0  0  0  0  0  0  0  0
  1  2  1  0
  2  3  2  0
M  END
$$$$

     RDKit          3D

  3  2  0  0  0  0  0  0  0  0999 V2000
    0.8096   -3.2663   -0.5270 F   0  0  0  0  0  0  0  0  0  0  0  0
    0.3624   -2.0035   -0.3196 C   0  0  0  0  0  0  0  0  0  0  0  0
   -0.8418   -1.6534   -0.7815 C   0  0  0  0  0  0  0  0  0  0  0  0
  1  2  1  0
  2  3  2  0
M  END
$$$$

     RDKit          3D

  3  2  0  0  0  0  0  0  0  0999 V2000
    0.8096   -3.2663   -0.5270 F   0  0  0  0  0  0  0  0  0  0  0  0
    0.3624   -2.0035   -0.3196 C   0  0  0  0  0  0  0  0  0  0  0  0
   -0.8418   -1.6534   -0.7815 C   0  0  0  0  0  0  0  0  0  0  0  0
  1  2  1  0
  2  3  2  0
M  END
$$$$

     RDKit          3D

  3  2  0  0  0  0  0  0  0  0999 V2000
    0.8096   -3.2663   -0.5270 F   0  0  0  0  0  0  0  0  0  0  0  0
    0.3624   -2.0035   -0.3196 C   0  0  0  0  0  0  0  0  0  0  0  0
   -0.8418   -1.6534   -0.7815 C   0  0  0  0  0  0  0  0  0  0  0  0
  1  2  1  0
  2  3  2  0
M  END
$$$$

     RDKit          3D

  3  2  0  0  0  0  0  0  0  0999 V2000
    0.5064   -3.1645   -1.4255 F   0  0  0  0  0  0  0  0  0  0  0  0
    0.4499   -1.9159   -0.9003 C   0  0  0  0  0  0  0  0  0  0  0  0
    1.5342   -1.4079   -0.3068 C   0  0  0  0  0  0  0  0  0  0  0  0
  1  2  1  0
  2  3  2  0
M  END
$$$$

     RDKit          3D

  3  2  0  0  0  0  0  0  0  0999 V2000
    0.5064   -3.1645   -1.4255 F   0  0  0  0  0  0  0  0  0  0  0  0
    0.4499   -1.9159   -0.9003 C   0  0  0  0  0  0  0  0  0  0  0  0
    1.5342   -1.4079   -0.3068 C   0  0  0  0  0  0  0  0  0  0  0  0
  1  2  1  0
  2  3  2  0
M  END
$$$$

     RDKit          3D

  3  2  0  0  0  0  0  0  0  0999 V2000
    0.5064   -3.1645   -1.4255 F   0  0  0  0  0  0  0  0  0  0  0  0
    0.4499   -1.9159   -0.9003 C   0  0  0  0  0  0  0  0  0  0  0  0
    1.5342   -1.4079   -0.3068 C   0  0  0  0  0  0  0  0  0  0  0  0
  1  2  1  0
  2  3  2  0
M  END
$$$$

     RDKit          3D

  9  9  0  0  0  0  0  0  0  0999 V2000
    1.0294   -1.3131   -2.1559 F   0  0  0  0  0  0  0  0  0  0  0  0
    0.5322   -0.6773   -1.0644 C   0  0  0  0  0  0  0  0  0  0  0  0
   -0.8518   -0.5389   -0.9304 C   0  0  0  0  0  0  0  0  0  0  0  0
   -1.3993    0.1341    0.1734 C   0  0  0  0  0  0  0  0  0  0  0  0
   -0.5362    0.6687    1.1472 C   0  0  0  0  0  0  0  0  0  0  0  0
   -1.0365    1.2936    2.2439 F   0  0  0  0  0  0  0  0  0  0  0  0
    0.8500    0.5313    1.0151 C   0  0  0  0  0  0  0  0  0  0  0  0
    1.6590    1.0242    1.9879 F   0  0  0  0  0  0  0  0  0  0  0  0
    1.3959   -0.1390   -0.0945 C   0  0  0  0  0  0  0  0  0  0  0  0
  1  2  1  0
  2  3  4  0
  3  4  4  0
  4  5  4  0
  5  6  1  0
  5  7  4  0
  7  8  1  0
  7  9  4  0
  9  2  4  0
M  END
$$$$

     RDKit          3D

  9  9  0  0  0  0  0  0  0  0999 V2000
    1.0546    2.4851   -0.6329 F   0  0  0  0  0  0  0  0  0  0  0  0
    0.5453    1.2585   -0.3518 C   0  0  0  0  0  0  0  0  0  0  0  0
   -0.8412    1.0858   -0.3386 C   0  0  0  0  0  0  0  0  0  0  0  0
   -1.4020   -0.1764   -0.0863 C   0  0  0  0  0  0  0  0  0  0  0  0
   -0.5495   -1.2699    0.1511 C   0  0  0  0  0  0  0  0  0  0  0  0
   -1.0617   -2.4967    0.4272 F   0  0  0  0  0  0  0  0  0  0  0  0
    0.8392   -1.0993    0.1384 C   0  0  0  0  0  0  0  0  0  0  0  0
    1.6393   -2.1656    0.3966 F   0  0  0  0  0  0  0  0  0  0  0  0
    1.3982    0.1673   -0.1096 C   0  0  0  0  0  0  0  0  0  0  0  0
  1  2  1  0
  2  3  4  0
  3  4  4  0
  4  5  4  0
  5  6  1  0
  5  7  4  0
  7  8  1  0
  7  9  4  0
  9  2  4  0
M  END
$$$$

     RDKit          3D

  9  9  0  0  0  0  0  0  0  0999 V2000
   -1.5193    2.2776    0.1515 F   0  0  0  0  0  0  0  0  0  0  0  0
   -0.7794    1.1448    0.0409 C   0  0  0  0  0  0  0  0  0  0  0  0
    0.6141    1.2434    0.0125 C   0  0  0  0  0  0  0  0  0  0  0  0
    1.4096    0.0939   -0.1176 C   0  0  0  0  0  0  0  0  0  0  0  0
    0.7861   -1.1633   -0.2171 C   0  0  0  0  0  0  0  0  0  0  0  0
    1.5273   -2.2915   -0.3630 F   0  0  0  0  0  0  0  0  0  0  0  0
   -0.6092   -1.2643   -0.1906 C   0  0  0  0  0  0  0  0  0  0  0  0
   -1.1849   -2.4919   -0.2643 F   0  0  0  0  0  0  0  0  0  0  0  0
   -1.4038   -0.1105   -0.0648 C   0  0  0  0  0  0  0  0  0  0  0  0
  1  2  1  0
  2  3  4  0
  3  4  4  0
  4  5  4  0
  5  6  1  0
  5  7  4  0
  7  8  1  0
  7  9  4  0
  9  2  4  0
M  END
$$$$

     RDKit          3D

  9  9  0  0  0  0  0  0  0  0999 V2000
    1.3707    2.2300    0.9123 F   0  0  0  0  0  0  0  0  0  0  0  0
    0.7047    1.1215    0.4992 C   0  0  0  0  0  0  0  0  0  0  0  0
   -0.6925    1.1305    0.4948 C   0  0  0  0  0  0  0  0  0  0  0  0
   -1.4132    0.0074    0.0584 C   0  0  0  0  0  0  0  0  0  0  0  0
   -0.7106   -1.1321   -0.3740 C   0  0  0  0  0  0  0  0  0  0  0  0
   -1.3788   -2.2268   -0.8198 F   0  0  0  0  0  0  0  0  0  0  0  0
    0.6886   -1.1427   -0.3721 C   0  0  0  0  0  0  0  0  0  0  0  0
    1.3419   -2.2640   -0.7717 F   0  0  0  0  0  0  0  0  0  0  0  0
    1.4080   -0.0145    0.0614 C   0  0  0  0  0  0  0  0  0  0  0  0
  1  2  1  0
  2  3  4  0
  3  4  4  0
  4  5  4  0
  5  6  1  0
  5  7  4  0
  7  8  1  0
  7  9  4  0
  9  2  4  0
M  END
$$$$

     RDKit          3D

  9  9  0  0  0  0  0  0  0  0999 V2000
   -1.0649   -2.4759    0.3933 F   0  0  0  0  0  0  0  0  0  0  0  0
   -0.5512   -1.2567    0.0892 C   0  0  0  0  0  0  0  0  0  0  0  0
    0.8361   -1.0991    0.0337 C   0  0  0  0  0  0  0  0  0  0  0  0
    1.4026    0.1553   -0.2434 C   0  0  0  0  0  0  0  0  0  0  0  0
    0.5551    1.2566   -0.4623 C   0  0  0  0  0  0  0  0  0  0  0  0
    1.0719    2.4760   -0.7615 F   0  0  0  0  0  0  0  0  0  0  0  0
   -0.8344    1.1012   -0.4071 C   0  0  0  0  0  0  0  0  0  0  0  0
   -1.6303    2.1745   -0.6483 F   0  0  0  0  0  0  0  0  0  0  0  0
   -1.3992   -0.1577   -0.1344 C   0  0  0  0  0  0  0  0  0  0  0  0
  1  2  1  0
  2  3  4  0
  3  4  4  0
  4  5  4  0
  5  6  1  0
  5  7  4  0
  7  8  1  0
  7  9  4  0
  9  2  4  0
M  END
$$$$

     RDKit          3D

  9  9  0  0  0  0  0  0  0  0999 V2000
   -1.3867   -0.3790    2.4901 F   0  0  0  0  0  0  0  0  0  0  0  0
   -0.7132   -0.1957    1.3258 C   0  0  0  0  0  0  0  0  0  0  0  0
    0.6817   -0.2782    1.3280 C   0  0  0  0  0  0  0  0  0  0  0  0
    1.4121   -0.0671    0.1476 C   0  0  0  0  0  0  0  0  0  0  0  0
    0.7218    0.2310   -1.0414 C   0  0  0  0  0  0  0  0  0  0  0  0
    1.4013    0.4650   -2.1934 F   0  0  0  0  0  0  0  0  0  0  0  0
   -0.6747    0.3158   -1.0455 C   0  0  0  0  0  0  0  0  0  0  0  0
   -1.3174    0.5917   -2.2094 F   0  0  0  0  0  0  0  0  0  0  0  0
   -1.4043    0.0983    0.1371 C   0  0  0  0  0  0  0  0  0  0  0  0
  1  2  1  0
  2  3  4  0
  3  4  4  0
  4  5  4  0
  5  6  1  0
  5  7  4  0
  7  8  1  0
  7  9  4  0
  9  2  4  0
M  END
$$$$

     RDKit          3D

  9  9  0  0  0  0  0  0  0  0999 V2000
   -1.3418   -2.2297   -0.8810 F   0  0  0  0  0  0  0  0  0  0  0  0
   -0.6925   -1.1259   -0.4303 C   0  0  0  0  0  0  0  0  0  0  0  0
    0.6921   -1.1789   -0.2497 C   0  0  0  0  0  0  0  0  0  0  0  0
    1.4007   -0.0450    0.1771 C   0  0  0  0  0  0  0  0  0  0  0  0
    0.6983    1.1458    0.4363 C   0  0  0  0  0  0  0  0  0  0  0  0
    1.3489    2.2437    0.8996 F   0  0  0  0  0  0  0  0  0  0  0  0
   -0.6882    1.2013    0.2561 C   0  0  0  0  0  0  0  0  0  0  0  0
   -1.3459    2.3561    0.5348 F   0  0  0  0  0  0  0  0  0  0  0  0
   -1.3955    0.0654   -0.1772 C   0  0  0  0  0  0  0  0  0  0  0  0
  1  2  1  0
  2  3  4  0
  3  4  4  0
  4  5  4  0
  5  6  1  0
  5  7  4  0
  7  8  1  0
  7  9  4  0
  9  2  4  0
M  END
$$$$

     RDKit          3D

  9  9  0  0  0  0  0  0  0  0999 V2000
    1.3685    2.1922    0.8680 F   0  0  0  0  0  0  0  0  0  0  0  0
    0.7030    1.1100    0.3897 C   0  0  0  0  0  0  0  0  0  0  0  0
   -0.6937    1.0985    0.4318 C   0  0  0  0  0  0  0  0  0  0  0  0
   -1.4127   -0.0201   -0.0177 C   0  0  0  0  0  0  0  0  0  0  0  0
   -0.7108   -1.1278   -0.5264 C   0  0  0  0  0  0  0  0  0  0  0  0
   -1.3799   -2.2029   -1.0162 F   0  0  0  0  0  0  0  0  0  0  0  0
    0.6877   -1.1187   -0.5694 C   0  0  0  0  0  0  0  0  0  0  0  0
    1.3408   -2.1912   -1.0860 F   0  0  0  0  0  0  0  0  0  0  0  0
    1.4063    0.0010   -0.1132 C   0  0  0  0  0  0  0  0  0  0  0  0
  1  2  1  0
  2  3  4  0
  3  4  4  0
  4  5  4  0
  5  6  1  0
  5  7  4  0
  7  8  1  0
  7  9  4  0
  9  2  4  0
M  END
$$$$

     RDKit          3D

  9  9  0  0  0  0  0  0  0  0999 V2000
   -1.2948    0.8822    2.2347 F   0  0  0  0  0  0  0  0  0  0  0  0
   -0.6657    0.4574    1.1092 C   0  0  0  0  0  0  0  0  0  0  0  0
    0.7307    0.4145    1.0864 C   0  0  0  0  0  0  0  0  0  0  0  0
    1.4127   -0.0467   -0.0505 C   0  0  0  0  0  0  0  0  0  0  0  0
    0.6736   -0.4491   -1.1776 C   0  0  0  0  0  0  0  0  0  0  0  0
    1.3062   -0.8447   -2.3120 F   0  0  0  0  0  0  0  0  0  0  0  0
   -0.7248   -0.4071   -1.1571 C   0  0  0  0  0  0  0  0  0  0  0  0
   -1.4137   -0.7696   -2.2696 F   0  0  0  0  0  0  0  0  0  0  0  0
   -1.4064    0.0402   -0.0108 C   0  0  0  0  0  0  0  0  0  0  0  0
  1  2  1  0
  2  3  4  0
  3  4  4  0
  4  5  4  0
  5  6  1  0
  5  7  4  0
  7  8  1  0
  7  9  4  0
  9  2  4  0
M  END
$$$$

     RDKit          3D

  9  9  0  0  0  0  0  0  0  0999 V2000
    1.4104   -1.0796    1.8908 F   0  0  0  0  0  0  0  0  0  0  0  0
    0.7251   -0.5454    0.8477 C   0  0  0  0  0  0  0  0  0  0  0  0
   -0.6660   -0.6721    0.8130 C   0  0  0  0  0  0  0  0  0  0  0  0
   -1.4091   -0.1084   -0.2365 C   0  0  0  0  0  0  0  0  0  0  0  0
   -0.7355    0.5893   -1.2555 C   0  0  0  0  0  0  0  0  0  0  0  0
   -1.4284    1.1670   -2.2703 F   0  0  0  0  0  0  0  0  0  0  0  0
    0.6572    0.7189   -1.2219 C   0  0  0  0  0  0  0  0  0  0  0  0
    1.2842    1.3857   -2.2248 F   0  0  0  0  0  0  0  0  0  0  0  0
    1.3997    0.1484   -0.1724 C   0  0  0  0  0  0  0  0  0  0  0  0
  1  2  1  0
  2  3  4  0
  3  4  4  0
  4  5  4  0
  5  6  1  0
  5  7  4  0
  7  8  1  0
  7  9  4  0
  9  2  4  0
M  END
$$$$

     RDKit          3D

  9  9  0  0  0  0  0  0  0  0999 V2000
   -1.2522   -0.8974   -2.1840 F   0  0  0  0  0  0  0  0  0  0  0  0
   -0.6449   -0.4542   -1.0537 C   0  0  0  0  0  0  0  0  0  0  0  0
    0.7302   -0.2069   -1.0735 C   0  0  0  0  0  0  0  0  0  0  0  0
    1.3934    0.2365    0.0818 C   0  0  0  0  0  0  0  0  0  0  0  0
    0.6553    0.4320    1.2633 C   0  0  0  0  0  0  0  0  0  0  0  0
    1.2712    0.8418    2.4018 F   0  0  0  0  0  0  0  0  0  0  0  0
   -0.7214    0.1833    1.2859 C   0  0  0  0  0  0  0  0  0  0  0  0
   -1.4144    0.4030    2.4328 F   0  0  0  0  0  0  0  0  0  0  0  0
   -1.3825   -0.2651    0.1281 C   0  0  0  0  0  0  0  0  0  0  0  0
  1  2  1  0
  2  3  4  0
  3  4  4  0
  4  5  4  0
  5  6  1  0
  5  7  4  0
  7  8  1  0
  7  9  4  0
  9  2  4  0
M  END
$$$$

     RDKit          3D

  4  3  0  0  0  0  0  0  0  0999 V2000
    0.6349    1.2915    1.2298 N   0  0  0  0  0  0  0  0  0  0  0  0
   -0.2095    0.5714    0.3195 C   0  0  0  0  0  0  0  0  0  0  0  0
    0.2144   -0.5520   -0.3036 C   0  0  0  0  0  0  0  0  0  0  0  0
   -0.6301   -1.2721   -1.2140 N   0  0  0  0  0  0  0  0  0  0  0  0
  1  2  1  0
  2  3  2  0
  3  4  1  0
M  END
$$$$

     RDKit          3D

  4  3  0  0  0  0  0  0  0  0999 V2000
    0.5391   -1.1624    1.3193 N   0  0  0  0  0  0  0  0  0  0  0  0
   -0.2647   -0.4662    0.3551 C   0  0  0  0  0  0  0  0  0  0  0  0
    0.2656    0.4648   -0.4708 C   0  0  0  0  0  0  0  0  0  0  0  0
   -0.5382    1.1611   -1.4349 N   0  0  0  0  0  0  0  0  0  0  0  0
  1  2  1  0
  2  3  2  0
  3  4  1  0
M  END
$$$$

     RDKit          3D

  4  3  0  0  0  0  0  0  0  0999 V2000
   -1.5237   -1.4237   -2.1468 N   0  0  0  0  0  0  0  0  0  0  0  0
   -0.7128   -0.6975   -1.2136 C   0  0  0  0  0  0  0  0  0  0  0  0
    0.5732   -1.0390   -0.9621 C   0  0  0  0  0  0  0  0  0  0  0  0
    1.2426   -2.0731   -1.6957 N   0  0  0  0  0  0  0  0  0  0  0  0
  1  2  1  0
  2  3  2  0
  3  4  1  0
M  END
$$$$

     RDKit          3D

  4  3  0  0  0  0  0  0  0  0999 V2000
   -1.4740   -1.9800    1.3344 N   0  0  0  0  0  0  0  0  0  0  0  0
   -0.6827   -0.9761    0.6850 C   0  0  0  0  0  0  0  0  0  0  0  0
    0.6042   -1.1970    0.3263 C   0  0  0  0  0  0  0  0  0  0  0  0
    1.2943   -2.4042    0.6758 N   0  0  0  0  0  0  0  0  0  0  0  0
  1  2  1  0
  2  3  2  0
  3  4  1  0
M  END
$$$$

     RDKit          3D

  4  3  0  0  0  0  0  0  0  0999 V2000
    1.4820   -2.2580   -0.9163 N   0  0  0  0  0  0  0  0  0  0  0  0
    0.7109   -1.1253   -0.4941 C   0  0  0  0  0  0  0  0  0  0  0  0
   -0.6170   -1.2133   -0.2446 C   0  0  0  0  0  0  0  0  0  0  0  0
   -1.3145   -2.4657   -0.2727 N   0  0  0  0  0  0  0  0  0  0  0  0
  1  2  1  0
  2  3  2  0
  3  4  1  0
M  END
$$$$

     RDKit          3D

  4  3  0  0  0  0  0  0  0  0999 V2000
    0.8944   -2.0329   -1.6678 N   0  0  0  0  0  0  0  0  0  0  0  0
    0.3981   -0.9995   -0.8067 C   0  0  0  0  0  0  0  0  0  0  0  0
   -0.6314   -1.2095    0.0474 C   0  0  0  0  0  0  0  0  0  0  0  0
   -1.3669   -2.4401    0.0637 N   0  0  0  0  0  0  0  0  0  0  0  0
  1  2  1  0
  2  3  2  0
  3  4  1  0
M  END
$$$$
