
     RDKit          3D

  7  7  0  0  0  0  0  0  0  0999 V2000
   -1.3423    2.0333   -1.5057 F   0  0  0  0  0  0  0  0  0  0  0  0
   -0.6908    1.0356   -0.8553 C   0  0  0  0  0  0  0  0  0  0  0  0
   -1.4063    0.0557   -0.1428 C   0  0  0  0  0  0  0  0  0  0  0  0
   -0.7000   -0.9776    0.4944 C   0  0  0  0  0  0  0  0  0  0  0  0
    0.6943   -1.0321    0.4243 C   0  0  0  0  0  0  0  0  0  0  0  0
    1.4108   -0.0521   -0.2821 C   0  0  0  0  0  0  0  0  0  0  0  0
    0.7046    0.9779   -0.9254 C   0  0  0  0  0  0  0  0  0  0  0  0
  1  2  1  0
  2  3  4  0
  3  4  4  0
  4  5  4  0
  5  6  4  0
  6  7  4  0
  7  2  4  0
M  END
$$$$

     RDKit          3D

  7  7  0  0  0  0  0  0  0  0999 V2000
    1.6649   -2.2108    0.1641 F   0  0  0  0  0  0  0  0  0  0  0  0
    0.8552   -1.1215    0.1847 C   0  0  0  0  0  0  0  0  0  0  0  0
    1.3980    0.1767    0.1945 C   0  0  0  0  0  0  0  0  0  0  0  0
    0.5293    1.2803    0.1951 C   0  0  0  0  0  0  0  0  0  0  0  0
   -0.8552    1.0934    0.1835 C   0  0  0  0  0  0  0  0  0  0  0  0
   -1.3991   -0.2014    0.1662 C   0  0  0  0  0  0  0  0  0  0  0  0
   -0.5309   -1.3060    0.1713 C   0  0  0  0  0  0  0  0  0  0  0  0
  1  2  1  0
  2  3  4  0
  3  4  4  0
  4  5  4  0
  5  6  4  0
  6  7  4  0
  7  2  4  0
M  END
$$$$

     RDKit          3D

  7  7  0  0  0  0  0  0  0  0999 V2000
    1.4402    0.6565   -2.1627 F   0  0  0  0  0  0  0  0  0  0  0  0
    0.7411    0.3213   -1.0484 C   0  0  0  0  0  0  0  0  0  0  0  0
    1.4079    0.0142    0.1521 C   0  0  0  0  0  0  0  0  0  0  0  0
    0.6509   -0.2925    1.2946 C   0  0  0  0  0  0  0  0  0  0  0  0
   -0.7452   -0.2942    1.2413 C   0  0  0  0  0  0  0  0  0  0  0  0
   -1.4127    0.0060    0.0426 C   0  0  0  0  0  0  0  0  0  0  0  0
   -0.6563    0.3190   -1.0992 C   0  0  0  0  0  0  0  0  0  0  0  0
  1  2  1  0
  2  3  4  0
  3  4  4  0
  4  5  4  0
  5  6  4  0
  6  7  4  0
  7  2  4  0
M  END
$$$$

     RDKit          3D

  7  7  0  0  0  0  0  0  0  0999 V2000
    1.3315   -1.4232   -1.8306 F   0  0  0  0  0  0  0  0  0  0  0  0
    0.6862   -0.7128   -0.8705 C   0  0  0  0  0  0  0  0  0  0  0  0
    1.4079   -0.0468    0.1371 C   0  0  0  0  0  0  0  0  0  0  0  0
    0.7053    0.6552    1.1302 C   0  0  0  0  0  0  0  0  0  0  0  0
   -0.6912    0.6942    1.1181 C   0  0  0  0  0  0  0  0  0  0  0  0
   -1.4135    0.0343    0.1103 C   0  0  0  0  0  0  0  0  0  0  0  0
   -0.7116   -0.6737   -0.8795 C   0  0  0  0  0  0  0  0  0  0  0  0
  1  2  1  0
  2  3  4  0
  3  4  4  0
  4  5  4  0
  5  6  4  0
  6  7  4  0
  7  2  4  0
M  END
$$$$

     RDKit          3D

  7  7  0  0  0  0  0  0  0  0999 V2000
   -1.1069    2.5102    0.2199 F   0  0  0  0  0  0  0  0  0  0  0  0
   -0.5720    1.2735    0.0549 C   0  0  0  0  0  0  0  0  0  0  0  0
   -1.4011    0.1489   -0.1123 C   0  0  0  0  0  0  0  0  0  0  0  0
   -0.8126   -1.1178   -0.2597 C   0  0  0  0  0  0  0  0  0  0  0  0
    0.5769   -1.2613   -0.2383 C   0  0  0  0  0  0  0  0  0  0  0  0
    1.4062   -0.1412   -0.0641 C   0  0  0  0  0  0  0  0  0  0  0  0
    0.8185    1.1270    0.0778 C   0  0  0  0  0  0  0  0  0  0  0  0
  1  2  1  0
  2  3  4  0
  3  4  4  0
  4  5  4  0
  5  6  4  0
  6  7  4  0
  7  2  4  0
M  END
$$$$

     RDKit          3D

  7  7  0  0  0  0  0  0  0  0999 V2000
   -1.2865    1.4896   -1.9227 F   0  0  0  0  0  0  0  0  0  0  0  0
   -0.6631    0.7587   -0.9636 C   0  0  0  0  0  0  0  0  0  0  0  0
   -1.4082    0.0387   -0.0116 C   0  0  0  0  0  0  0  0  0  0  0  0
   -0.7291   -0.6899    0.9786 C   0  0  0  0  0  0  0  0  0  0  0  0
    0.6674   -0.6986    1.0206 C   0  0  0  0  0  0  0  0  0  0  0  0
    1.4130    0.0254    0.0759 C   0  0  0  0  0  0  0  0  0  0  0  0
    0.7345    0.7499   -0.9183 C   0  0  0  0  0  0  0  0  0  0  0  0
  1  2  1  0
  2  3  4  0
  3  4  4  0
  4  5  4  0
  5  6  4  0
  6  7  4  0
  7  2  4  0
M  END
$$$$

     RDKit          3D

  7  7  0  0  0  0  0  0  0  0999 V2000
   -1.4246    0.5170   -2.3154 F   0  0  0  0  0  0  0  0  0  0  0  0
   -0.7341    0.2489   -1.1778 C   0  0  0  0  0  0  0  0  0  0  0  0
   -1.4053    0.0894    0.0486 C   0  0  0  0  0  0  0  0  0  0  0  0
   -0.6553   -0.1510    1.2115 C   0  0  0  0  0  0  0  0  0  0  0  0
    0.7383   -0.2320    1.1528 C   0  0  0  0  0  0  0  0  0  0  0  0
    1.4098   -0.0792   -0.0712 C   0  0  0  0  0  0  0  0  0  0  0  0
    0.6607    0.1674   -1.2339 C   0  0  0  0  0  0  0  0  0  0  0  0
  1  2  1  0
  2  3  4  0
  3  4  4  0
  4  5  4  0
  5  6  4  0
  6  7  4  0
  7  2  4  0
M  END
$$$$

     RDKit          3D

  7  7  0  0  0  0  0  0  0  0999 V2000
   -1.1741   -1.7936    1.8014 F   0  0  0  0  0  0  0  0  0  0  0  0
   -0.6066   -0.9414    0.9101 C   0  0  0  0  0  0  0  0  0  0  0  0
   -1.4020   -0.0705    0.1428 C   0  0  0  0  0  0  0  0  0  0  0  0
   -0.7824    0.7769   -0.7903 C   0  0  0  0  0  0  0  0  0  0  0  0
    0.6045    0.7542   -0.9580 C   0  0  0  0  0  0  0  0  0  0  0  0
    1.3997   -0.1190   -0.1977 C   0  0  0  0  0  0  0  0  0  0  0  0
    0.7812   -0.9623    0.7404 C   0  0  0  0  0  0  0  0  0  0  0  0
  1  2  1  0
  2  3  4  0
  3  4  4  0
  4  5  4  0
  5  6  4  0
  6  7  4  0
  7  2  4  0
M  END
$$$$

     RDKit          3D

  7  7  0  0  0  0  0  0  0  0999 V2000
    1.3101    0.6769   -2.3160 F   0  0  0  0  0  0  0  0  0  0  0  0
    0.6753    0.3467   -1.1624 C   0  0  0  0  0  0  0  0  0  0  0  0
    1.4066   -0.0632   -0.0323 C   0  0  0  0  0  0  0  0  0  0  0  0
    0.7172   -0.3774    1.1503 C   0  0  0  0  0  0  0  0  0  0  0  0
   -0.6755   -0.2823    1.2062 C   0  0  0  0  0  0  0  0  0  0  0  0
   -1.4069    0.1336    0.0816 C   0  0  0  0  0  0  0  0  0  0  0  0
   -0.7185    0.4427   -1.1034 C   0  0  0  0  0  0  0  0  0  0  0  0
  1  2  1  0
  2  3  4  0
  3  4  4  0
  4  5  4  0
  5  6  4  0
  6  7  4  0
  7  2  4  0
M  END
$$$$

     RDKit          3D

  7  7  0  0  0  0  0  0  0  0999 V2000
   -1.0627   -2.5945    0.4177 F   0  0  0  0  0  0  0  0  0  0  0  0
   -0.5462   -1.3521    0.2384 C   0  0  0  0  0  0  0  0  0  0  0  0
   -1.3806   -0.2193    0.2473 C   0  0  0  0  0  0  0  0  0  0  0  0
   -0.8194    1.0452    0.0071 C   0  0  0  0  0  0  0  0  0  0  0  0
    0.5527    1.1809   -0.2186 C   0  0  0  0  0  0  0  0  0  0  0  0
    1.3904    0.0535   -0.2122 C   0  0  0  0  0  0  0  0  0  0  0  0
    0.8265   -1.2140    0.0105 C   0  0  0  0  0  0  0  0  0  0  0  0
  1  2  1  0
  2  3  4  0
  3  4  4  0
  4  5  4  0
  5  6  4  0
  6  7  4  0
  7  2  4  0
M  END
$$$$

     RDKit          3D

  7  7  0  0  0  0  0  0  0  0999 V2000
   -1.6111   -2.2083   -0.6623 F   0  0  0  0  0  0  0  0  0  0  0  0
   -0.8285   -1.1196   -0.4501 C   0  0  0  0  0  0  0  0  0  0  0  0
   -1.4030    0.1351   -0.1761 C   0  0  0  0  0  0  0  0  0  0  0  0
   -0.5631    1.2266    0.0975 C   0  0  0  0  0  0  0  0  0  0  0  0
    0.8256    1.0745    0.0800 C   0  0  0  0  0  0  0  0  0  0  0  0
    1.4021   -0.1731   -0.2100 C   0  0  0  0  0  0  0  0  0  0  0  0
    0.5617   -1.2694   -0.4671 C   0  0  0  0  0  0  0  0  0  0  0  0
  1  2  1  0
  2  3  4  0
  3  4  4  0
  4  5  4  0
  5  6  4  0
  6  7  4  0
  7  2  4  0
M  END
$$$$

     RDKit          3D

  7  7  0  0  0  0  0  0  0  0999 V2000
   -1.1109    1.7100   -1.8229 F   0  0  0  0  0  0  0  0  0  0  0  0
   -0.5739    0.8808   -0.8919 C   0  0  0  0  0  0  0  0  0  0  0  0
   -1.4010    0.1271   -0.0391 C   0  0  0  0  0  0  0  0  0  0  0  0
   -0.8120   -0.7594    0.8767 C   0  0  0  0  0  0  0  0  0  0  0  0
    0.5777   -0.8824    0.9513 C   0  0  0  0  0  0  0  0  0  0  0  0
    1.4059   -0.1279    0.1041 C   0  0  0  0  0  0  0  0  0  0  0  0
    0.8168    0.7560   -0.8154 C   0  0  0  0  0  0  0  0  0  0  0  0
  1  2  1  0
  2  3  4  0
  3  4  4  0
  4  5  4  0
  5  6  4  0
  6  7  4  0
  7  2  4  0
M  END
$$$$

     RDKit          3D

  6  6  0  0  0  0  0  0  0  0999 V2000
    1.3392   -1.2331    0.4759 N   0  0  0  0  0  0  0  0  0  0  0  0
    0.0079   -1.2322    0.5201 N   0  0  0  0  0  0  0  0  0  0  0  0
   -0.7026   -0.1702    0.0582 C   0  0  0  0  0  0  0  0  0  0  0  0
   -0.0226    0.8882   -0.4547 N   0  0  0  0  0  0  0  0  0  0  0  0
    1.3086    0.8868   -0.4990 N   0  0  0  0  0  0  0  0  0  0  0  0
    2.0184   -0.1691   -0.0255 C   0  0  0  0  0  0  0  0  0  0  0  0
  1  2  4  0
  2  3  4  0
  3  4  4  0
  4  5  4  0
  5  6  4  0
  6  1  4  0
M  END
$$$$

     RDKit          3D

  6  6  0  0  0  0  0  0  0  0999 V2000
    1.6075   -0.2113    0.3703 N   0  0  0  0  0  0  0  0  0  0  0  0
    0.4151   -0.8006    0.4407 N   0  0  0  0  0  0  0  0  0  0  0  0
   -0.6772   -0.2306   -0.1317 C   0  0  0  0  0  0  0  0  0  0  0  0
   -0.5229    0.9521   -0.7822 N   0  0  0  0  0  0  0  0  0  0  0  0
    0.6697    1.5412   -0.8522 N   0  0  0  0  0  0  0  0  0  0  0  0
    1.7587    0.9769   -0.2687 C   0  0  0  0  0  0  0  0  0  0  0  0
  1  2  4  0
  2  3  4  0
  3  4  4  0
  4  5  4  0
  5  6  4  0
  6  1  4  0
M  END
$$$$

     RDKit          3D

  6  6  0  0  0  0  0  0  0  0999 V2000
   -1.3151   -0.6320   -0.9628 N   0  0  0  0  0  0  0  0  0  0  0  0
    0.0160   -0.5872   -0.9805 N   0  0  0  0  0  0  0  0  0  0  0  0
    0.6980    0.1784   -0.0893 C   0  0  0  0  0  0  0  0  0  0  0  0
   -0.0105    0.9012    0.8171 N   0  0  0  0  0  0  0  0  0  0  0  0
   -1.3416    0.8559    0.8347 N   0  0  0  0  0  0  0  0  0  0  0  0
   -2.0222    0.0803   -0.0487 C   0  0  0  0  0  0  0  0  0  0  0  0
  1  2  4  0
  2  3  4  0
  3  4  4  0
  4  5  4  0
  5  6  4  0
  6  1  4  0
M  END
$$$$

     RDKit          3D

  6  6  0  0  0  0  0  0  0  0999 V2000
   -1.3522    1.1833    0.6444 N   0  0  0  0  0  0  0  0  0  0  0  0
   -0.0221    1.2339    0.5943 N   0  0  0  0  0  0  0  0  0  0  0  0
    0.6950    0.1951    0.0921 C   0  0  0  0  0  0  0  0  0  0  0  0
    0.0225   -0.8942   -0.3629 N   0  0  0  0  0  0  0  0  0  0  0  0
   -1.3075   -0.9443   -0.3130 N   0  0  0  0  0  0  0  0  0  0  0  0
   -2.0230    0.0886    0.2009 C   0  0  0  0  0  0  0  0  0  0  0  0
  1  2  4  0
  2  3  4  0
  3  4  4  0
  4  5  4  0
  5  6  4  0
  6  1  4  0
M  END
$$$$

     RDKit          3D

  6  6  0  0  0  0  0  0  0  0999 V2000
    1.3748   -1.2255   -0.2848 N   0  0  0  0  0  0  0  0  0  0  0  0
    0.0441   -1.2681   -0.3247 N   0  0  0  0  0  0  0  0  0  0  0  0
   -0.6975   -0.1894    0.0393 C   0  0  0  0  0  0  0  0  0  0  0  0
   -0.0491    0.9315    0.4502 N   0  0  0  0  0  0  0  0  0  0  0  0
    1.2815    0.9736    0.4902 N   0  0  0  0  0  0  0  0  0  0  0  0
    2.0223   -0.1001    0.1141 C   0  0  0  0  0  0  0  0  0  0  0  0
  1  2  4  0
  2  3  4  0
  3  4  4  0
  4  5  4  0
  5  6  4  0
  6  1  4  0
M  END
$$$$

     RDKit          3D

  6  6  0  0  0  0  0  0  0  0999 V2000
    1.3303   -0.9958    0.1859 N   0  0  0  0  0  0  0  0  0  0  0  0
   -0.0015   -0.9997    0.2042 N   0  0  0  0  0  0  0  0  0  0  0  0
   -0.7023    0.1562    0.0688 C   0  0  0  0  0  0  0  0  0  0  0  0
   -0.0119    1.3168   -0.0804 N   0  0  0  0  0  0  0  0  0  0  0  0
    1.3200    1.3203   -0.0989 N   0  0  0  0  0  0  0  0  0  0  0  0
    2.0196    0.1626    0.0238 C   0  0  0  0  0  0  0  0  0  0  0  0
  1  2  4  0
  2  3  4  0
  3  4  4  0
  4  5  4  0
  5  6  4  0
  6  1  4  0
M  END
$$$$

     RDKit          3D

  6  6  0  0  0  0  0  0  0  0999 V2000
    1.4504   -0.5945   -0.7162 N   0  0  0  0  0  0  0  0  0  0  0  0
    0.1498   -0.5264   -0.9952 N   0  0  0  0  0  0  0  0  0  0  0  0
   -0.6947    0.1865   -0.2051 C   0  0  0  0  0  0  0  0  0  0  0  0
   -0.1796    0.8325    0.8735 N   0  0  0  0  0  0  0  0  0  0  0  0
    1.1211    0.7639    1.1524 N   0  0  0  0  0  0  0  0  0  0  0  0
    1.9624    0.0405    0.3689 C   0  0  0  0  0  0  0  0  0  0  0  0
  1  2  4  0
  2  3  4  0
  3  4  4  0
  4  5  4  0
  5  6  4  0
  6  1  4  0
M  END
$$$$

     RDKit          3D

  6  6  0  0  0  0  0  0  0  0999 V2000
    1.2512    0.8863    0.6819 N   0  0  0  0  0  0  0  0  0  0  0  0
   -0.0768    0.8372    0.5927 N   0  0  0  0  0  0  0  0  0  0  0  0
   -0.6879   -0.0990   -0.1792 C   0  0  0  0  0  0  0  0  0  0  0  0
    0.0885   -0.9805   -0.8619 N   0  0  0  0  0  0  0  0  0  0  0  0
    1.4165   -0.9313   -0.7722 N   0  0  0  0  0  0  0  0  0  0  0  0
    2.0261   -0.0029    0.0097 C   0  0  0  0  0  0  0  0  0  0  0  0
  1  2  4  0
  2  3  4  0
  3  4  4  0
  4  5  4  0
  5  6  4  0
  6  1  4  0
M  END
$$$$

     RDKit          3D

  7  7  0  0  0  0  0  0  0  0999 V2000
   -1.5788    0.7556    2.2435 C   0  0  0  0  0  0  0  0  0  0  0  0
   -0.8008    0.4215    0.9984 C   0  0  0  0  0  0  0  0  0  0  0  0
    0.6035    0.4343    1.0364 C   0  0  0  0  0  0  0  0  0  0  0  0
    1.3508    0.1259   -0.1083 C   0  0  0  0  0  0  0  0  0  0  0  0
    0.6932   -0.1906   -1.3026 C   0  0  0  0  0  0  0  0  0  0  0  0
   -0.7009   -0.1958   -1.3557 C   0  0  0  0  0  0  0  0  0  0  0  0
   -1.4576    0.1117   -0.2152 C   0  0  0  0  0  0  0  0  0  0  0  0
  1  2  1  0
  2  3  4  0
  3  4  4  0
  4  5  4  0
  5  6  4  0
  6  7  4  0
  7  2  4  0
M  END
$$$$

     RDKit          3D

  7  7  0  0  0  0  0  0  0  0999 V2000
   -1.6750    1.1771    2.1003 C   0  0  0  0  0  0  0  0  0  0  0  0
   -0.8433    0.4707    1.0628 C   0  0  0  0  0  0  0  0  0  0  0  0
    0.5579    0.5454    1.1316 C   0  0  0  0  0  0  0  0  0  0  0  0
    1.3544   -0.1020    0.1775 C   0  0  0  0  0  0  0  0  0  0  0  0
    0.7495   -0.8362   -0.8493 C   0  0  0  0  0  0  0  0  0  0  0  0
   -0.6408   -0.9268   -0.9219 C   0  0  0  0  0  0  0  0  0  0  0  0
   -1.4464   -0.2823    0.0286 C   0  0  0  0  0  0  0  0  0  0  0  0
  1  2  1  0
  2  3  4  0
  3  4  4  0
  4  5  4  0
  5  6  4  0
  6  7  4  0
  7  2  4  0
M  END
$$$$

     RDKit          3D

  7  7  0  0  0  0  0  0  0  0999 V2000
   -1.3820   -0.9290   -2.3374 C   0  0  0  0  0  0  0  0  0  0  0  0
   -0.6987   -0.5177   -1.0603 C   0  0  0  0  0  0  0  0  0  0  0  0
    0.6935   -0.3296   -1.0504 C   0  0  0  0  0  0  0  0  0  0  0  0
    1.3531    0.0542    0.1249 C   0  0  0  0  0  0  0  0  0  0  0  0
    0.6202    0.2449    1.3020 C   0  0  0  0  0  0  0  0  0  0  0  0
   -0.7613    0.0505    1.3075 C   0  0  0  0  0  0  0  0  0  0  0  0
   -1.4304   -0.3339    0.1360 C   0  0  0  0  0  0  0  0  0  0  0  0
  1  2  1  0
  2  3  4  0
  3  4  4  0
  4  5  4  0
  5  6  4  0
  6  7  4  0
  7  2  4  0
M  END
$$$$

     RDKit          3D

  7  7  0  0  0  0  0  0  0  0999 V2000
    1.4056   -2.3571    0.9228 C   0  0  0  0  0  0  0  0  0  0  0  0
    0.7122   -1.0659    0.5779 C   0  0  0  0  0  0  0  0  0  0  0  0
   -0.6848   -1.0490    0.4310 C   0  0  0  0  0  0  0  0  0  0  0  0
   -1.3539    0.1395    0.1092 C   0  0  0  0  0  0  0  0  0  0  0  0
   -0.6255    1.3225   -0.0604 C   0  0  0  0  0  0  0  0  0  0  0  0
    0.7611    1.3208    0.0938 C   0  0  0  0  0  0  0  0  0  0  0  0
    1.4397    0.1361    0.4160 C   0  0  0  0  0  0  0  0  0  0  0  0
  1  2  1  0
  2  3  4  0
  3  4  4  0
  4  5  4  0
  5  6  4  0
  6  7  4  0
  7  2  4  0
M  END
$$$$

     RDKit          3D

  7  7  0  0  0  0  0  0  0  0999 V2000
   -1.4292    0.4088    2.4413 C   0  0  0  0  0  0  0  0  0  0  0  0
   -0.7255    0.0973    1.1471 C   0  0  0  0  0  0  0  0  0  0  0  0
    0.6751    0.1857    1.0830 C   0  0  0  0  0  0  0  0  0  0  0  0
    1.3538   -0.0980   -0.1097 C   0  0  0  0  0  0  0  0  0  0  0  0
    0.6313   -0.4803   -1.2459 C   0  0  0  0  0  0  0  0  0  0  0  0
   -0.7590   -0.5826   -1.1916 C   0  0  0  0  0  0  0  0  0  0  0  0
   -1.4473   -0.3007   -0.0021 C   0  0  0  0  0  0  0  0  0  0  0  0
  1  2  1  0
  2  3  4  0
  3  4  4  0
  4  5  4  0
  5  6  4  0
  6  7  4  0
  7  2  4  0
M  END
$$$$

     RDKit          3D

  7  7  0  0  0  0  0  0  0  0999 V2000
   -1.5223   -1.7928    1.6069 C   0  0  0  0  0  0  0  0  0  0  0  0
   -0.7787   -0.7731    0.7857 C   0  0  0  0  0  0  0  0  0  0  0  0
    0.6241   -0.7275    0.8446 C   0  0  0  0  0  0  0  0  0  0  0  0
    1.3397    0.2103    0.0882 C   0  0  0  0  0  0  0  0  0  0  0  0
    0.6511    1.1161   -0.7269 C   0  0  0  0  0  0  0  0  0  0  0  0
   -0.7426    1.0892   -0.7838 C   0  0  0  0  0  0  0  0  0  0  0  0
   -1.4676    0.1535   -0.0310 C   0  0  0  0  0  0  0  0  0  0  0  0
  1  2  1  0
  2  3  4  0
  3  4  4  0
  4  5  4  0
  5  6  4  0
  6  7  4  0
  7  2  4  0
M  END
$$$$

     RDKit          3D

  7  7  0  0  0  0  0  0  0  0999 V2000
    1.5719    0.1348   -2.4703 C   0  0  0  0  0  0  0  0  0  0  0  0
    0.7918    0.1518   -1.1826 C   0  0  0  0  0  0  0  0  0  0  0  0
   -0.6097    0.0628   -1.2219 C   0  0  0  0  0  0  0  0  0  0  0  0
   -1.3586    0.0739   -0.0376 C   0  0  0  0  0  0  0  0  0  0  0  0
   -0.7060    0.1836    1.1958 C   0  0  0  0  0  0  0  0  0  0  0  0
    0.6844    0.2858    1.2471 C   0  0  0  0  0  0  0  0  0  0  0  0
    1.4427    0.2745    0.0669 C   0  0  0  0  0  0  0  0  0  0  0  0
  1  2  1  0
  2  3  4  0
  3  4  4  0
  4  5  4  0
  5  6  4  0
  6  7  4  0
  7  2  4  0
M  END
$$$$

     RDKit          3D

  3  2  0  0  0  0  0  0  0  0999 V2000
   -0.5948   -3.3492   -1.6223 Cl  0  0  0  0  0  0  0  0  0  0  0  0
   -0.1924   -1.7728   -0.9565 C   0  0  0  0  0  0  0  0  0  0  0  0
    1.0750   -1.3396   -1.0586 C   0  0  0  0  0  0  0  0  0  0  0  0
  1  2  1  0
  2  3  2  0
M  END
$$$$

     RDKit          3D

  3  2  0  0  0  0  0  0  0  0999 V2000
   -0.2072    2.2490    0.3497 Cl  0  0  0  0  0  0  0  0  0  0  0  0
   -0.5095    0.5285    0.0972 C   0  0  0  0  0  0  0  0  0  0  0  0
    0.4962   -0.3528   -0.0373 C   0  0  0  0  0  0  0  0  0  0  0  0
  1  2  1  0
  2  3  2  0
M  END
$$$$

     RDKit          3D

  3  2  0  0  0  0  0  0  0  0999 V2000
   -1.2656    1.0589    1.5859 Cl  0  0  0  0  0  0  0  0  0  0  0  0
   -0.7052    0.1208    0.1999 C   0  0  0  0  0  0  0  0  0  0  0  0
    0.6020   -0.0062   -0.0848 C   0  0  0  0  0  0  0  0  0  0  0  0
  1  2  1  0
  2  3  2  0
M  END
$$$$

     RDKit          3D

  3  2  0  0  0  0  0  0  0  0999 V2000
   -1.7523   -1.9296   -2.7033 Cl  0  0  0  0  0  0  0  0  0  0  0  0
   -0.7965   -1.1073   -1.4773 C   0  0  0  0  0  0  0  0  0  0  0  0
    0.5407   -1.1133   -1.6058 C   0  0  0  0  0  0  0  0  0  0  0  0
  1  2  1  0
  2  3  2  0
M  END
$$$$

     RDKit          3D

  3  2  0  0  0  0  0  0  0  0999 V2000
    1.5960   -2.8893   -1.7907 Cl  0  0  0  0  0  0  0  0  0  0  0  0
    0.7176   -1.6307   -0.9321 C   0  0  0  0  0  0  0  0  0  0  0  0
   -0.6195   -1.7324   -0.8516 C   0  0  0  0  0  0  0  0  0  0  0  0
  1  2  1  0
  2  3  2  0
M  END
$$$$

     RDKit          3D

  3  2  0  0  0  0  0  0  0  0999 V2000
   -0.0625    0.5159   -2.3298 Cl  0  0  0  0  0  0  0  0  0  0  0  0
    0.4376    0.1503   -0.6785 C   0  0  0  0  0  0  0  0  0  0  0  0
   -0.4500   -0.1223    0.2933 C   0  0  0  0  0  0  0  0  0  0  0  0
  1  2  1  0
  2  3  2  0
M  END
$$$$

     RDKit          3D

  3  2  0  0  0  0  0  0  0  0999 V2000
    0.0792   -1.4088    1.6820 Cl  0  0  0  0  0  0  0  0  0  0  0  0
   -0.4305   -0.3064    0.4031 C   0  0  0  0  0  0  0  0  0  0  0  0
    0.4433    0.4657   -0.2652 C   0  0  0  0  0  0  0  0  0  0  0  0
  1  2  1  0
  2  3  2  0
M  END
$$$$

     RDKit          3D

  3  2  0  0  0  0  0  0  0  0999 V2000
   -0.1142    2.1891    0.6958 Cl  0  0  0  0  0  0  0  0  0  0  0  0
    0.4224    0.5936    0.1646 C   0  0  0  0  0  0  0  0  0  0  0  0
   -0.4428   -0.4159   -0.0308 C   0  0  0  0  0  0  0  0  0  0  0  0
  1  2  1  0
  2  3  2  0
M  END
$$$$

     RDKit          3D

  3  2  0  0  0  0  0  0  0  0999 V2000
   -0.1606   -1.1669   -1.8215 Cl  0  0  0  0  0  0  0  0  0  0  0  0
    0.4103   -0.2649   -0.4155 C   0  0  0  0  0  0  0  0  0  0  0  0
   -0.4285    0.1679    0.5404 C   0  0  0  0  0  0  0  0  0  0  0  0
  1  2  1  0
  2  3  2  0
M  END
$$$$

     RDKit          3D

  3  2  0  0  0  0  0  0  0  0999 V2000
    1.4081   -3.4040   -0.7056 Cl  0  0  0  0  0  0  0  0  0  0  0  0
    0.6052   -1.8781   -0.3731 C   0  0  0  0  0  0  0  0  0  0  0  0
   -0.7369   -1.8375   -0.3907 C   0  0  0  0  0  0  0  0  0  0  0  0
  1  2  1  0
  2  3  2  0
M  END
$$$$

     RDKit          3D

  3  2  0  0  0  0  0  0  0  0999 V2000
    0.2149    1.4589    1.6790 Cl  0  0  0  0  0  0  0  0  0  0  0  0
   -0.4010    0.3607    0.4418 C   0  0  0  0  0  0  0  0  0  0  0  0
    0.4325   -0.3284   -0.3535 C   0  0  0  0  0  0  0  0  0  0  0  0
  1  2  1  0
  2  3  2  0
M  END
$$$$

     RDKit          3D

  3  2  0  0  0  0  0  0  0  0999 V2000
    0.1705    0.3001   -2.0937 Cl  0  0  0  0  0  0  0  0  0  0  0  0
   -0.4069    0.0045   -0.4521 C   0  0  0  0  0  0  0  0  0  0  0  0
    0.4405   -0.0229    0.5887 C   0  0  0  0  0  0  0  0  0  0  0  0
  1  2  1  0
  2  3  2  0
M  END
$$$$
