
     RDKit          3D

  3  2  0  0  0  0  0  0  0  0999 V2000
    0.0664   -1.3196   -1.3205 F   0  0  0  0  0  0  0  0  0  0  0  0
   -0.4363   -0.4183   -0.4370 C   0  0  0  0  0  0  0  0  0  0  0  0
    0.3931    0.3383    0.2997 C   0  0  0  0  0  0  0  0  0  0  0  0
  1  2  1  0
  2  3  2  0
M  END
$$$$

     RDKit          3D

  3  2  0  0  0  0  0  0  0  0999 V2000
    0.0339   -1.7392   -0.4280 F   0  0  0  0  0  0  0  0  0  0  0  0
   -0.4416   -0.5792    0.0952 C   0  0  0  0  0  0  0  0  0  0  0  0
    0.4007    0.4268    0.3808 C   0  0  0  0  0  0  0  0  0  0  0  0
  1  2  1  0
  2  3  2  0
M  END
$$$$

     RDKit          3D

  3  2  0  0  0  0  0  0  0  0999 V2000
    0.3356   -0.5370   -1.7544 F   0  0  0  0  0  0  0  0  0  0  0  0
    0.5541   -0.1626   -0.4670 C   0  0  0  0  0  0  0  0  0  0  0  0
   -0.4837    0.0817    0.3495 C   0  0  0  0  0  0  0  0  0  0  0  0
  1  2  1  0
  2  3  2  0
M  END
$$$$

     RDKit          3D

  3  2  0  0  0  0  0  0  0  0999 V2000
    0.0674   -1.5845    1.1700 F   0  0  0  0  0  0  0  0  0  0  0  0
   -0.4350   -0.4945    0.5337 C   0  0  0  0  0  0  0  0  0  0  0  0
    0.3928    0.3830   -0.0562 C   0  0  0  0  0  0  0  0  0  0  0  0
  1  2  1  0
  2  3  2  0
M  END
$$$$

     RDKit          3D

  3  2  0  0  0  0  0  0  0  0999 V2000
   -0.0217   -0.7902    1.5497 F   0  0  0  0  0  0  0  0  0  0  0  0
    0.4493   -0.2219    0.4093 C   0  0  0  0  0  0  0  0  0  0  0  0
   -0.4058    0.2051   -0.5340 C   0  0  0  0  0  0  0  0  0  0  0  0
  1  2  1  0
  2  3  2  0
M  END
$$$$

     RDKit          3D

  3  2  0  0  0  0  0  0  0  0999 V2000
   -0.0902   -1.8547    0.1331 F   0  0  0  0  0  0  0  0  0  0  0  0
   -0.4812   -0.5542    0.1186 C   0  0  0  0  0  0  0  0  0  0  0  0
    0.4316    0.4308    0.0979 C   0  0  0  0  0  0  0  0  0  0  0  0
  1  2  1  0
  2  3  2  0
M  END
$$$$

     RDKit          3D

  3  2  0  0  0  0  0  0  0  0999 V2000
   -0.1011    0.5431    1.8134 F   0  0  0  0  0  0  0  0  0  0  0  0
    0.4219    0.1834    0.6127 C   0  0  0  0  0  0  0  0  0  0  0  0
   -0.3841   -0.1548   -0.4069 C   0  0  0  0  0  0  0  0  0  0  0  0
  1  2  1  0
  2  3  2  0
M  END
$$$$

     RDKit          3D

  3  2  0  0  0  0  0  0  0  0999 V2000
   -0.0863   -1.7744   -0.4916 F   0  0  0  0  0  0  0  0  0  0  0  0
    0.4268   -0.5769   -0.1081 C   0  0  0  0  0  0  0  0  0  0  0  0
   -0.3879    0.4456    0.1995 C   0  0  0  0  0  0  0  0  0  0  0  0
  1  2  1  0
  2  3  2  0
M  END
$$$$

     RDKit          3D

  3  2  0  0  0  0  0  0  0  0999 V2000
    0.1945    1.7606   -0.7526 F   0  0  0  0  0  0  0  0  0  0  0  0
    0.5090    0.4904   -0.3890 C   0  0  0  0  0  0  0  0  0  0  0  0
   -0.4474   -0.3538    0.0310 C   0  0  0  0  0  0  0  0  0  0  0  0
  1  2  1  0
  2  3  2  0
M  END
$$$$

     RDKit          3D

  3  2  0  0  0  0  0  0  0  0999 V2000
   -0.1053   -0.3766   -1.8297 F   0  0  0  0  0  0  0  0  0  0  0  0
   -0.4864   -0.1439   -0.5471 C   0  0  0  0  0  0  0  0  0  0  0  0
    0.4311    0.1126    0.3997 C   0  0  0  0  0  0  0  0  0  0  0  0
  1  2  1  0
  2  3  2  0
M  END
$$$$

     RDKit          3D

  3  2  0  0  0  0  0  0  0  0999 V2000
   -1.6473   -2.6667   -2.5452 F   0  0  0  0  0  0  0  0  0  0  0  0
   -0.9200   -1.8117   -1.7826 C   0  0  0  0  0  0  0  0  0  0  0  0
    0.3956   -1.7025   -2.0317 C   0  0  0  0  0  0  0  0  0  0  0  0
  1  2  1  0
  2  3  2  0
M  END
$$$$

     RDKit          3D

  8  8  0  0  0  0  0  0  0  0999 V2000
    1.2931   -0.9614   -2.2138 F   0  0  0  0  0  0  0  0  0  0  0  0
    0.6675   -0.4782   -1.1101 C   0  0  0  0  0  0  0  0  0  0  0  0
   -0.7296   -0.4822   -1.0627 C   0  0  0  0  0  0  0  0  0  0  0  0
   -1.4074   -0.0038    0.0709 C   0  0  0  0  0  0  0  0  0  0  0  0
   -0.6609    0.4692    1.1629 C   0  0  0  0  0  0  0  0  0  0  0  0
    0.7364    0.4735    1.1202 C   0  0  0  0  0  0  0  0  0  0  0  0
    1.4288    0.9558    2.1836 F   0  0  0  0  0  0  0  0  0  0  0  0
    1.4123    0.0009   -0.0183 C   0  0  0  0  0  0  0  0  0  0  0  0
  1  2  1  0
  2  3  4  0
  3  4  4  0
  4  5  4  0
  5  6  4  0
  6  7  1  0
  6  8  4  0
  8  2  4  0
M  END
$$$$

     RDKit          3D

  8  8  0  0  0  0  0  0  0  0999 V2000
    1.3765    0.0849   -2.5484 F   0  0  0  0  0  0  0  0  0  0  0  0
    0.7104    0.0536   -1.3659 C   0  0  0  0  0  0  0  0  0  0  0  0
   -0.6846    0.1445   -1.3676 C   0  0  0  0  0  0  0  0  0  0  0  0
   -1.4051    0.0944   -0.1627 C   0  0  0  0  0  0  0  0  0  0  0  0
   -0.7032   -0.0388    1.0468 C   0  0  0  0  0  0  0  0  0  0  0  0
    0.6916   -0.1318    1.0529 C   0  0  0  0  0  0  0  0  0  0  0  0
    1.3418   -0.2443    2.2393 F   0  0  0  0  0  0  0  0  0  0  0  0
    1.4102   -0.0870   -0.1547 C   0  0  0  0  0  0  0  0  0  0  0  0
  1  2  1  0
  2  3  4  0
  3  4  4  0
  4  5  4  0
  5  6  4  0
  6  7  1  0
  6  8  4  0
  8  2  4  0
M  END
$$$$

     RDKit          3D

  8  8  0  0  0  0  0  0  0  0999 V2000
    1.3761    1.5295   -1.8358 F   0  0  0  0  0  0  0  0  0  0  0  0
    0.7091    0.7654   -0.9335 C   0  0  0  0  0  0  0  0  0  0  0  0
   -0.6869    0.8236   -0.8918 C   0  0  0  0  0  0  0  0  0  0  0  0
   -1.4064    0.0576    0.0404 C   0  0  0  0  0  0  0  0  0  0  0  0
   -0.7023   -0.7606    0.9394 C   0  0  0  0  0  0  0  0  0  0  0  0
    0.6938   -0.8205    0.9021 C   0  0  0  0  0  0  0  0  0  0  0  0
    1.3441   -1.6362    1.7709 F   0  0  0  0  0  0  0  0  0  0  0  0
    1.4113   -0.0585   -0.0365 C   0  0  0  0  0  0  0  0  0  0  0  0
  1  2  1  0
  2  3  4  0
  3  4  4  0
  4  5  4  0
  5  6  4  0
  6  7  1  0
  6  8  4  0
  8  2  4  0
M  END
$$$$

     RDKit          3D

  8  8  0  0  0  0  0  0  0  0999 V2000
   -1.3864    0.6409   -2.3022 F   0  0  0  0  0  0  0  0  0  0  0  0
   -0.7143    0.3361   -1.1628 C   0  0  0  0  0  0  0  0  0  0  0  0
    0.6827    0.2917   -1.1875 C   0  0  0  0  0  0  0  0  0  0  0  0
    1.4074   -0.0407   -0.0308 C   0  0  0  0  0  0  0  0  0  0  0  0
    0.7085   -0.3191    1.1555 C   0  0  0  0  0  0  0  0  0  0  0  0
   -0.6885   -0.2775    1.1841 C   0  0  0  0  0  0  0  0  0  0  0  0
   -1.3340   -0.5365    2.3499 F   0  0  0  0  0  0  0  0  0  0  0  0
   -1.4118    0.0500    0.0239 C   0  0  0  0  0  0  0  0  0  0  0  0
  1  2  1  0
  2  3  4  0
  3  4  4  0
  4  5  4  0
  5  6  4  0
  6  7  1  0
  6  8  4  0
  8  2  4  0
M  END
$$$$

     RDKit          3D

  8  8  0  0  0  0  0  0  0  0999 V2000
    1.4717    1.1559    1.8167 F   0  0  0  0  0  0  0  0  0  0  0  0
    0.7574    0.5722    0.8207 C   0  0  0  0  0  0  0  0  0  0  0  0
   -0.6381    0.6494    0.8482 C   0  0  0  0  0  0  0  0  0  0  0  0
   -1.4061    0.0697   -0.1752 C   0  0  0  0  0  0  0  0  0  0  0  0
   -0.7513   -0.5803   -1.2346 C   0  0  0  0  0  0  0  0  0  0  0  0
    0.6441   -0.6584   -1.2668 C   0  0  0  0  0  0  0  0  0  0  0  0
    1.2462   -1.3108   -2.2938 F   0  0  0  0  0  0  0  0  0  0  0  0
    1.4102   -0.0836   -0.2377 C   0  0  0  0  0  0  0  0  0  0  0  0
  1  2  1  0
  2  3  4  0
  3  4  4  0
  4  5  4  0
  5  6  4  0
  6  7  1  0
  6  8  4  0
  8  2  4  0
M  END
$$$$

     RDKit          3D

  8  8  0  0  0  0  0  0  0  0999 V2000
   -1.4045   -2.3547    0.2814 F   0  0  0  0  0  0  0  0  0  0  0  0
   -0.7239   -1.1889    0.1376 C   0  0  0  0  0  0  0  0  0  0  0  0
    0.6734   -1.2156    0.1065 C   0  0  0  0  0  0  0  0  0  0  0  0
    1.4080   -0.0249   -0.0204 C   0  0  0  0  0  0  0  0  0  0  0  0
    0.7181    1.1943   -0.1254 C   0  0  0  0  0  0  0  0  0  0  0  0
   -0.6791    1.2256   -0.0931 C   0  0  0  0  0  0  0  0  0  0  0  0
   -1.3167    2.4181   -0.2124 F   0  0  0  0  0  0  0  0  0  0  0  0
   -1.4119    0.0332    0.0394 C   0  0  0  0  0  0  0  0  0  0  0  0
  1  2  1  0
  2  3  4  0
  3  4  4  0
  4  5  4  0
  5  6  4  0
  6  7  1  0
  6  8  4  0
  8  2  4  0
M  END
$$$$

     RDKit          3D

  8  8  0  0  0  0  0  0  0  0999 V2000
   -1.4521    0.9479   -1.8969 F   0  0  0  0  0  0  0  0  0  0  0  0
   -0.7471    0.4724   -0.8387 C   0  0  0  0  0  0  0  0  0  0  0  0
    0.6398    0.6449   -0.8117 C   0  0  0  0  0  0  0  0  0  0  0  0
    1.3960    0.1830    0.2784 C   0  0  0  0  0  0  0  0  0  0  0  0
    0.7397   -0.4643    1.3384 C   0  0  0  0  0  0  0  0  0  0  0  0
   -0.6473   -0.6374    1.3162 C   0  0  0  0  0  0  0  0  0  0  0  0
   -1.2500   -1.2806    2.3486 F   0  0  0  0  0  0  0  0  0  0  0  0
   -1.4026   -0.1693    0.2268 C   0  0  0  0  0  0  0  0  0  0  0  0
  1  2  1  0
  2  3  4  0
  3  4  4  0
  4  5  4  0
  5  6  4  0
  6  7  1  0
  6  8  4  0
  8  2  4  0
M  END
$$$$

     RDKit          3D

  3  2  0  0  0  0  0  0  0  0999 V2000
   -0.0395    1.8577    0.0001 F   0  0  0  0  0  0  0  0  0  0  0  0
   -0.4621    0.5675    0.0487 C   0  0  0  0  0  0  0  0  0  0  0  0
    0.4348   -0.4323    0.0052 C   0  0  0  0  0  0  0  0  0  0  0  0
  1  2  1  0
  2  3  2  0
M  END
$$$$

     RDKit          3D

  3  2  0  0  0  0  0  0  0  0999 V2000
    0.0720    1.2330   -1.5428 F   0  0  0  0  0  0  0  0  0  0  0  0
    0.4729    0.3849   -0.5600 C   0  0  0  0  0  0  0  0  0  0  0  0
   -0.4428   -0.2859    0.1593 C   0  0  0  0  0  0  0  0  0  0  0  0
  1  2  1  0
  2  3  2  0
M  END
$$$$

     RDKit          3D

  3  2  0  0  0  0  0  0  0  0999 V2000
   -0.2881   -0.2311   -1.8063 F   0  0  0  0  0  0  0  0  0  0  0  0
   -0.5301   -0.0183   -0.4865 C   0  0  0  0  0  0  0  0  0  0  0  0
    0.4937    0.0241    0.3829 C   0  0  0  0  0  0  0  0  0  0  0  0
  1  2  1  0
  2  3  2  0
M  END
$$$$

     RDKit          3D

  3  2  0  0  0  0  0  0  0  0999 V2000
    0.2013   -1.8321    0.0273 F   0  0  0  0  0  0  0  0  0  0  0  0
   -0.3795   -0.6043    0.0595 C   0  0  0  0  0  0  0  0  0  0  0  0
    0.3724    0.4961   -0.1126 C   0  0  0  0  0  0  0  0  0  0  0  0
  1  2  1  0
  2  3  2  0
M  END
$$$$

     RDKit          3D

  3  2  0  0  0  0  0  0  0  0999 V2000
   -0.0988   -1.5713    0.8092 F   0  0  0  0  0  0  0  0  0  0  0  0
   -0.4782   -0.4001    0.2347 C   0  0  0  0  0  0  0  0  0  0  0  0
    0.4542    0.4663   -0.1964 C   0  0  0  0  0  0  0  0  0  0  0  0
  1  2  1  0
  2  3  2  0
M  END
$$$$

     RDKit          3D

  3  2  0  0  0  0  0  0  0  0999 V2000
   -0.0320   -0.8993    1.6971 F   0  0  0  0  0  0  0  0  0  0  0  0
    0.4361   -0.3118    0.5654 C   0  0  0  0  0  0  0  0  0  0  0  0
   -0.4189    0.2672   -0.2952 C   0  0  0  0  0  0  0  0  0  0  0  0
  1  2  1  0
  2  3  2  0
M  END
$$$$

     RDKit          3D

  3  2  0  0  0  0  0  0  0  0999 V2000
    0.2037   -0.7133    1.5353 F   0  0  0  0  0  0  0  0  0  0  0  0
    0.5091   -0.1515    0.3366 C   0  0  0  0  0  0  0  0  0  0  0  0
   -0.4691    0.1579   -0.5301 C   0  0  0  0  0  0  0  0  0  0  0  0
  1  2  1  0
  2  3  2  0
M  END
$$$$

     RDKit          3D

  3  2  0  0  0  0  0  0  0  0999 V2000
   -0.1825   -1.7510    0.5702 F   0  0  0  0  0  0  0  0  0  0  0  0
   -0.5027   -0.5138    0.1091 C   0  0  0  0  0  0  0  0  0  0  0  0
    0.4648    0.3876   -0.1258 C   0  0  0  0  0  0  0  0  0  0  0  0
  1  2  1  0
  2  3  2  0
M  END
$$$$

     RDKit          3D

  3  2  0  0  0  0  0  0  0  0999 V2000
    0.1056    1.8539   -0.6651 F   0  0  0  0  0  0  0  0  0  0  0  0
    0.4840    0.6383   -0.1907 C   0  0  0  0  0  0  0  0  0  0  0  0
   -0.4449   -0.2566    0.1834 C   0  0  0  0  0  0  0  0  0  0  0  0
  1  2  1  0
  2  3  2  0
M  END
$$$$

     RDKit          3D

  3  2  0  0  0  0  0  0  0  0999 V2000
    0.1024   -1.4456   -1.1825 F   0  0  0  0  0  0  0  0  0  0  0  0
    0.4779   -0.4043   -0.3955 C   0  0  0  0  0  0  0  0  0  0  0  0
   -0.4439    0.3160    0.2646 C   0  0  0  0  0  0  0  0  0  0  0  0
  1  2  1  0
  2  3  2  0
M  END
$$$$

     RDKit          3D

  3  2  0  0  0  0  0  0  0  0999 V2000
   -0.0655    1.5037    1.1609 F   0  0  0  0  0  0  0  0  0  0  0  0
    0.4278    0.4684    0.4332 C   0  0  0  0  0  0  0  0  0  0  0  0
   -0.4044   -0.4081   -0.1527 C   0  0  0  0  0  0  0  0  0  0  0  0
  1  2  1  0
  2  3  2  0
M  END
$$$$

     RDKit          3D

  3  2  0  0  0  0  0  0  0  0999 V2000
   -0.8049    3.8600    0.0393 F   0  0  0  0  0  0  0  0  0  0  0  0
   -0.3402    2.5850    0.0372 C   0  0  0  0  0  0  0  0  0  0  0  0
    0.9679    2.3871    0.2713 C   0  0  0  0  0  0  0  0  0  0  0  0
  1  2  1  0
  2  3  2  0
M  END
$$$$

     RDKit          3D

  6  6  0  0  0  0  0  0  0  0999 V2000
    1.3634   -1.5925   -0.8739 N   0  0  0  0  0  0  0  0  0  0  0  0
    0.0454   -1.4245   -0.7802 N   0  0  0  0  0  0  0  0  0  0  0  0
   -0.4744   -0.4388   -0.0043 C   0  0  0  0  0  0  0  0  0  0  0  0
    0.3760    0.3537    0.6948 N   0  0  0  0  0  0  0  0  0  0  0  0
    1.6941    0.1870    0.6004 N   0  0  0  0  0  0  0  0  0  0  0  0
    2.2170   -0.7876   -0.1887 C   0  0  0  0  0  0  0  0  0  0  0  0
  1  2  4  0
  2  3  4  0
  3  4  4  0
  4  5  4  0
  5  6  4  0
  6  1  4  0
M  END
$$$$

     RDKit          3D

  6  6  0  0  0  0  0  0  0  0999 V2000
    1.4697    0.0663    1.4531 N   0  0  0  0  0  0  0  0  0  0  0  0
    0.1482   -0.0186    1.3102 N   0  0  0  0  0  0  0  0  0  0  0  0
   -0.4155   -0.0385    0.0764 C   0  0  0  0  0  0  0  0  0  0  0  0
    0.3936    0.0570   -1.0097 N   0  0  0  0  0  0  0  0  0  0  0  0
    1.7152    0.1423   -0.8673 N   0  0  0  0  0  0  0  0  0  0  0  0
    2.2827    0.1451    0.3673 C   0  0  0  0  0  0  0  0  0  0  0  0
  1  2  4  0
  2  3  4  0
  3  4  4  0
  4  5  4  0
  5  6  4  0
  6  1  4  0
M  END
$$$$

     RDKit          3D

  6  6  0  0  0  0  0  0  0  0999 V2000
    1.7158   -0.5265   -0.0375 N   0  0  0  0  0  0  0  0  0  0  0  0
    0.4038   -0.7275   -0.1473 N   0  0  0  0  0  0  0  0  0  0  0  0
   -0.4608    0.3180   -0.1369 C   0  0  0  0  0  0  0  0  0  0  0  0
    0.0412    1.5758   -0.0389 N   0  0  0  0  0  0  0  0  0  0  0  0
    1.3534    1.7773    0.0703 N   0  0  0  0  0  0  0  0  0  0  0  0
    2.2194    0.7302    0.0773 C   0  0  0  0  0  0  0  0  0  0  0  0
  1  2  4  0
  2  3  4  0
  3  4  4  0
  4  5  4  0
  5  6  4  0
  6  1  4  0
M  END
$$$$

     RDKit          3D

  6  6  0  0  0  0  0  0  0  0999 V2000
    1.5054   -1.0154   -1.6282 N   0  0  0  0  0  0  0  0  0  0  0  0
    0.1784   -0.9047   -1.5936 N   0  0  0  0  0  0  0  0  0  0  0  0
   -0.4439   -0.3627   -0.5154 C   0  0  0  0  0  0  0  0  0  0  0  0
    0.3125    0.0400    0.5365 N   0  0  0  0  0  0  0  0  0  0  0  0
    1.6394   -0.0695    0.5020 N   0  0  0  0  0  0  0  0  0  0  0  0
    2.2654   -0.5967   -0.5826 C   0  0  0  0  0  0  0  0  0  0  0  0
  1  2  4  0
  2  3  4  0
  3  4  4  0
  4  5  4  0
  5  6  4  0
  6  1  4  0
M  END
$$$$

     RDKit          3D

  6  6  0  0  0  0  0  0  0  0999 V2000
    1.4235   -1.2597   -0.8580 N   0  0  0  0  0  0  0  0  0  0  0  0
    0.1098   -1.0408   -0.8409 N   0  0  0  0  0  0  0  0  0  0  0  0
   -0.4344   -0.1588    0.0345 C   0  0  0  0  0  0  0  0  0  0  0  0
    0.3850    0.4763    0.9114 N   0  0  0  0  0  0  0  0  0  0  0  0
    1.6987    0.2572    0.8949 N   0  0  0  0  0  0  0  0  0  0  0  0
    2.2474   -0.6130    0.0074 C   0  0  0  0  0  0  0  0  0  0  0  0
  1  2  4  0
  2  3  4  0
  3  4  4  0
  4  5  4  0
  5  6  4  0
  6  1  4  0
M  END
$$$$

     RDKit          3D

  6  6  0  0  0  0  0  0  0  0999 V2000
    1.6803   -0.2081    0.6670 N   0  0  0  0  0  0  0  0  0  0  0  0
    0.3581   -0.1550    0.8156 N   0  0  0  0  0  0  0  0  0  0  0  0
   -0.4373    0.2600   -0.2025 C   0  0  0  0  0  0  0  0  0  0  0  0
    0.1444    0.6430   -1.3680 N   0  0  0  0  0  0  0  0  0  0  0  0
    1.4673    0.5906   -1.5170 N   0  0  0  0  0  0  0  0  0  0  0  0
    2.2640    0.1607   -0.5035 C   0  0  0  0  0  0  0  0  0  0  0  0
  1  2  4  0
  2  3  4  0
  3  4  4  0
  4  5  4  0
  5  6  4  0
  6  1  4  0
M  END
$$$$

     RDKit          3D

  6  6  0  0  0  0  0  0  0  0999 V2000
    1.7759    0.6141    0.6958 N   0  0  0  0  0  0  0  0  0  0  0  0
    0.4627    0.7893    0.8339 N   0  0  0  0  0  0  0  0  0  0  0  0
   -0.4157   -0.0368    0.2097 C   0  0  0  0  0  0  0  0  0  0  0  0
    0.0719   -1.0289   -0.5775 N   0  0  0  0  0  0  0  0  0  0  0  0
    1.3849   -1.2045   -0.7152 N   0  0  0  0  0  0  0  0  0  0  0  0
    2.2660   -0.3888   -0.0791 C   0  0  0  0  0  0  0  0  0  0  0  0
  1  2  4  0
  2  3  4  0
  3  4  4  0
  4  5  4  0
  5  6  4  0
  6  1  4  0
M  END
$$$$

     RDKit          3D

  6  6  0  0  0  0  0  0  0  0999 V2000
    1.4828   -0.9737   -1.4008 N   0  0  0  0  0  0  0  0  0  0  0  0
    0.1560   -0.8603   -1.3735 N   0  0  0  0  0  0  0  0  0  0  0  0
   -0.4514   -0.0673   -0.4553 C   0  0  0  0  0  0  0  0  0  0  0  0
    0.3207    0.6332    0.4141 N   0  0  0  0  0  0  0  0  0  0  0  0
    1.6476    0.5204    0.3860 N   0  0  0  0  0  0  0  0  0  0  0  0
    2.2577   -0.2894   -0.5188 C   0  0  0  0  0  0  0  0  0  0  0  0
  1  2  4  0
  2  3  4  0
  3  4  4  0
  4  5  4  0
  5  6  4  0
  6  1  4  0
M  END
$$$$

     RDKit          3D

  6  6  0  0  0  0  0  0  0  0999 V2000
    1.6807   -0.8800   -1.2352 N   0  0  0  0  0  0  0  0  0  0  0  0
    0.3563   -1.0232   -1.2234 N   0  0  0  0  0  0  0  0  0  0  0  0
   -0.3898   -0.4656   -0.2371 C   0  0  0  0  0  0  0  0  0  0  0  0
    0.2413    0.2139    0.7534 N   0  0  0  0  0  0  0  0  0  0  0  0
    1.5653    0.3567    0.7417 N   0  0  0  0  0  0  0  0  0  0  0  0
    2.3138   -0.1838   -0.2548 C   0  0  0  0  0  0  0  0  0  0  0  0
  1  2  4  0
  2  3  4  0
  3  4  4  0
  4  5  4  0
  5  6  4  0
  6  1  4  0
M  END
$$$$

     RDKit          3D

  6  6  0  0  0  0  0  0  0  0999 V2000
    1.6794   -0.0183    0.5486 N   0  0  0  0  0  0  0  0  0  0  0  0
    0.3780    0.2266    0.6913 N   0  0  0  0  0  0  0  0  0  0  0  0
   -0.4259    0.3491   -0.3959 C   0  0  0  0  0  0  0  0  0  0  0  0
    0.1279    0.2504   -1.6302 N   0  0  0  0  0  0  0  0  0  0  0  0
    1.4293    0.0048   -1.7730 N   0  0  0  0  0  0  0  0  0  0  0  0
    2.2326   -0.1404   -0.6870 C   0  0  0  0  0  0  0  0  0  0  0  0
  1  2  4  0
  2  3  4  0
  3  4  4  0
  4  5  4  0
  5  6  4  0
  6  1  4  0
M  END
$$$$

     RDKit          3D

  6  6  0  0  0  0  0  0  0  0999 V2000
    1.6610    0.0339   -0.9524 N   0  0  0  0  0  0  0  0  0  0  0  0
    0.3344    0.1195   -1.0352 N   0  0  0  0  0  0  0  0  0  0  0  0
   -0.4557   -0.4619   -0.0979 C   0  0  0  0  0  0  0  0  0  0  0  0
    0.1307   -1.1592    0.9083 N   0  0  0  0  0  0  0  0  0  0  0  0
    1.4574   -1.2451    0.9907 N   0  0  0  0  0  0  0  0  0  0  0  0
    2.2519   -0.6466    0.0647 C   0  0  0  0  0  0  0  0  0  0  0  0
  1  2  4  0
  2  3  4  0
  3  4  4  0
  4  5  4  0
  5  6  4  0
  6  1  4  0
M  END
$$$$

     RDKit          3D

  6  6  0  0  0  0  0  0  0  0999 V2000
    1.3758    1.6702    0.2123 N   0  0  0  0  0  0  0  0  0  0  0  0
    0.0570    1.4880    0.1712 N   0  0  0  0  0  0  0  0  0  0  0  0
   -0.4649    0.3081   -0.2508 C   0  0  0  0  0  0  0  0  0  0  0  0
    0.3813   -0.6706   -0.6592 N   0  0  0  0  0  0  0  0  0  0  0  0
    1.7001   -0.4881   -0.6179 N   0  0  0  0  0  0  0  0  0  0  0  0
    2.2266    0.6847   -0.1773 C   0  0  0  0  0  0  0  0  0  0  0  0
  1  2  4  0
  2  3  4  0
  3  4  4  0
  4  5  4  0
  5  6  4  0
  6  1  4  0
M  END
$$$$

     RDKit          3D

  6  6  0  0  0  0  0  0  0  0999 V2000
    1.2938   -1.1347   -1.0539 N   0  0  0  0  0  0  0  0  0  0  0  0
   -0.0078   -0.9289   -0.8602 N   0  0  0  0  0  0  0  0  0  0  0  0
   -0.4401   -0.1185    0.1389 C   0  0  0  0  0  0  0  0  0  0  0  0
    0.4810    0.4564    0.9544 N   0  0  0  0  0  0  0  0  0  0  0  0
    1.7826    0.2499    0.7613 N   0  0  0  0  0  0  0  0  0  0  0  0
    2.2179   -0.5466   -0.2500 C   0  0  0  0  0  0  0  0  0  0  0  0
  1  2  4  0
  2  3  4  0
  3  4  4  0
  4  5  4  0
  5  6  4  0
  6  1  4  0
M  END
$$$$

     RDKit          3D

  6  6  0  0  0  0  0  0  0  0999 V2000
    1.5962    0.3991    0.0144 N   0  0  0  0  0  0  0  0  0  0  0  0
    0.2922    0.2376    0.2276 N   0  0  0  0  0  0  0  0  0  0  0  0
   -0.4637   -0.5050   -0.6193 C   0  0  0  0  0  0  0  0  0  0  0  0
    0.1310   -1.0534   -1.7112 N   0  0  0  0  0  0  0  0  0  0  0  0
    1.4366   -0.8922   -1.9251 N   0  0  0  0  0  0  0  0  0  0  0  0
    2.1982   -0.1653   -1.0653 C   0  0  0  0  0  0  0  0  0  0  0  0
  1  2  4  0
  2  3  4  0
  3  4  4  0
  4  5  4  0
  5  6  4  0
  6  1  4  0
M  END
$$$$

     RDKit          3D

  6  6  0  0  0  0  0  0  0  0999 V2000
    1.5729    1.2305    1.0822 N   0  0  0  0  0  0  0  0  0  0  0  0
    0.2540    1.0599    1.1530 N   0  0  0  0  0  0  0  0  0  0  0  0
   -0.3504    0.0459    0.4846 C   0  0  0  0  0  0  0  0  0  0  0  0
    0.4206   -0.8088   -0.2357 N   0  0  0  0  0  0  0  0  0  0  0  0
    1.7398   -0.6379   -0.3069 N   0  0  0  0  0  0  0  0  0  0  0  0
    2.3447    0.3879    0.3470 C   0  0  0  0  0  0  0  0  0  0  0  0
  1  2  4  0
  2  3  4  0
  3  4  4  0
  4  5  4  0
  5  6  4  0
  6  1  4  0
M  END
$$$$

     RDKit          3D

  6  6  0  0  0  0  0  0  0  0999 V2000
    1.3632   -1.2737   -0.7286 N   0  0  0  0  0  0  0  0  0  0  0  0
    0.0745   -1.1080   -0.4360 N   0  0  0  0  0  0  0  0  0  0  0  0
   -0.3403   -0.0322    0.2792 C   0  0  0  0  0  0  0  0  0  0  0  0
    0.5821    0.8837    0.6707 N   0  0  0  0  0  0  0  0  0  0  0  0
    1.8708    0.7177    0.3784 N   0  0  0  0  0  0  0  0  0  0  0  0
    2.2901   -0.3655   -0.3258 C   0  0  0  0  0  0  0  0  0  0  0  0
  1  2  4  0
  2  3  4  0
  3  4  4  0
  4  5  4  0
  5  6  4  0
  6  1  4  0
M  END
$$$$
