
     RDKit          3D

  7  7  0  0  0  0  0  0  0  0999 V2000
   -1.4831   -1.9398   -1.1905 F   0  0  0  0  0  0  0  0  0  0  0  0
   -0.7654   -0.9935   -0.5330 C   0  0  0  0  0  0  0  0  0  0  0  0
    0.6304   -1.0778   -0.5343 C   0  0  0  0  0  0  0  0  0  0  0  0
    1.4062   -0.1002    0.1107 C   0  0  0  0  0  0  0  0  0  0  0  0
    0.7602    0.9714    0.7485 C   0  0  0  0  0  0  0  0  0  0  0  0
   -0.6343    1.0580    0.7511 C   0  0  0  0  0  0  0  0  0  0  0  0
   -1.4108    0.0777    0.1119 C   0  0  0  0  0  0  0  0  0  0  0  0
  1  2  1  0
  2  3  4  0
  3  4  4  0
  4  5  4  0
  5  6  4  0
  6  7  4  0
  7  2  4  0
M  END
$$$$

     RDKit          3D

  7  7  0  0  0  0  0  0  0  0999 V2000
    1.3759    1.5887   -2.0072 F   0  0  0  0  0  0  0  0  0  0  0  0
    0.7097    0.7952   -1.1301 C   0  0  0  0  0  0  0  0  0  0  0  0
   -0.6865    0.8575   -1.0840 C   0  0  0  0  0  0  0  0  0  0  0  0
   -1.4072    0.0725   -0.1685 C   0  0  0  0  0  0  0  0  0  0  0  0
   -0.7046   -0.7690    0.7094 C   0  0  0  0  0  0  0  0  0  0  0  0
    0.6904   -0.8330    0.6653 C   0  0  0  0  0  0  0  0  0  0  0  0
    1.4113   -0.0532   -0.2538 C   0  0  0  0  0  0  0  0  0  0  0  0
  1  2  1  0
  2  3  4  0
  3  4  4  0
  4  5  4  0
  5  6  4  0
  6  7  4  0
  7  2  4  0
M  END
$$$$

     RDKit          3D

  7  7  0  0  0  0  0  0  0  0999 V2000
    1.2771    0.8418    2.3036 F   0  0  0  0  0  0  0  0  0  0  0  0
    0.6607    0.4209    1.1698 C   0  0  0  0  0  0  0  0  0  0  0  0
   -0.7362    0.3660    1.1372 C   0  0  0  0  0  0  0  0  0  0  0  0
   -1.4091   -0.0318   -0.0301 C   0  0  0  0  0  0  0  0  0  0  0  0
   -0.6582   -0.3836   -1.1637 C   0  0  0  0  0  0  0  0  0  0  0  0
    0.7376   -0.3295   -1.1337 C   0  0  0  0  0  0  0  0  0  0  0  0
    1.4109    0.0743    0.0309 C   0  0  0  0  0  0  0  0  0  0  0  0
  1  2  1  0
  2  3  4  0
  3  4  4  0
  4  5  4  0
  5  6  4  0
  6  7  4  0
  7  2  4  0
M  END
$$$$

     RDKit          3D

  7  7  0  0  0  0  0  0  0  0999 V2000
   -1.3454    0.3539   -2.4118 F   0  0  0  0  0  0  0  0  0  0  0  0
   -0.6954    0.1853   -1.2321 C   0  0  0  0  0  0  0  0  0  0  0  0
    0.7019    0.2369   -1.2139 C   0  0  0  0  0  0  0  0  0  0  0  0
    1.4094    0.0327   -0.0175 C   0  0  0  0  0  0  0  0  0  0  0  0
    0.6927   -0.2151    1.1647 C   0  0  0  0  0  0  0  0  0  0  0  0
   -0.7034   -0.2671    1.1491 C   0  0  0  0  0  0  0  0  0  0  0  0
   -1.4112   -0.0695   -0.0478 C   0  0  0  0  0  0  0  0  0  0  0  0
  1  2  1  0
  2  3  4  0
  3  4  4  0
  4  5  4  0
  5  6  4  0
  6  7  4  0
  7  2  4  0
M  END
$$$$

     RDKit          3D

  7  7  0  0  0  0  0  0  0  0999 V2000
   -1.5228   -2.1084    0.8798 F   0  0  0  0  0  0  0  0  0  0  0  0
   -0.7857   -1.0703    0.4087 C   0  0  0  0  0  0  0  0  0  0  0  0
    0.6032   -1.2077    0.3236 C   0  0  0  0  0  0  0  0  0  0  0  0
    1.3996   -0.1471   -0.1396 C   0  0  0  0  0  0  0  0  0  0  0  0
    0.7819    1.0600   -0.5057 C   0  0  0  0  0  0  0  0  0  0  0  0
   -0.6056    1.2004   -0.4198 C   0  0  0  0  0  0  0  0  0  0  0  0
   -1.4030    0.1382    0.0366 C   0  0  0  0  0  0  0  0  0  0  0  0
  1  2  1  0
  2  3  4  0
  3  4  4  0
  4  5  4  0
  5  6  4  0
  6  7  4  0
  7  2  4  0
M  END
$$$$

     RDKit          3D

  7  7  0  0  0  0  0  0  0  0999 V2000
   -1.4479    1.4875   -1.8876 F   0  0  0  0  0  0  0  0  0  0  0  0
   -0.7470    0.7844   -0.9618 C   0  0  0  0  0  0  0  0  0  0  0  0
    0.6504    0.8141   -1.0022 C   0  0  0  0  0  0  0  0  0  0  0  0
    1.4084    0.1154   -0.0478 C   0  0  0  0  0  0  0  0  0  0  0  0
    0.7423   -0.6054    0.9570 C   0  0  0  0  0  0  0  0  0  0  0  0
   -0.6538   -0.6352    1.0006 C   0  0  0  0  0  0  0  0  0  0  0  0
   -1.4122    0.0574    0.0426 C   0  0  0  0  0  0  0  0  0  0  0  0
  1  2  1  0
  2  3  4  0
  3  4  4  0
  4  5  4  0
  5  6  4  0
  6  7  4  0
  7  2  4  0
M  END
$$$$

     RDKit          3D

  7  7  0  0  0  0  0  0  0  0999 V2000
   -1.0881   -1.0494    2.3320 F   0  0  0  0  0  0  0  0  0  0  0  0
   -0.5644   -0.5211    1.1964 C   0  0  0  0  0  0  0  0  0  0  0  0
    0.8229   -0.5290    1.0214 C   0  0  0  0  0  0  0  0  0  0  0  0
    1.3987   -0.0097   -0.1501 C   0  0  0  0  0  0  0  0  0  0  0  0
    0.5598    0.5077   -1.1507 C   0  0  0  0  0  0  0  0  0  0  0  0
   -0.8267    0.5151   -0.9790 C   0  0  0  0  0  0  0  0  0  0  0  0
   -1.4027    0.0024    0.1949 C   0  0  0  0  0  0  0  0  0  0  0  0
  1  2  1  0
  2  3  4  0
  3  4  4  0
  4  5  4  0
  5  6  4  0
  6  7  4  0
  7  2  4  0
M  END
$$$$

     RDKit          3D

  7  7  0  0  0  0  0  0  0  0999 V2000
   -1.2809    2.3663   -0.7953 F   0  0  0  0  0  0  0  0  0  0  0  0
   -0.6623    1.1987   -0.4843 C   0  0  0  0  0  0  0  0  0  0  0  0
    0.7350    1.1474   -0.4949 C   0  0  0  0  0  0  0  0  0  0  0  0
    1.4086   -0.0505   -0.2032 C   0  0  0  0  0  0  0  0  0  0  0  0
    0.6584   -1.1962    0.1083 C   0  0  0  0  0  0  0  0  0  0  0  0
   -0.7379   -1.1479    0.1178 C   0  0  0  0  0  0  0  0  0  0  0  0
   -1.4122    0.0478   -0.1792 C   0  0  0  0  0  0  0  0  0  0  0  0
  1  2  1  0
  2  3  4  0
  3  4  4  0
  4  5  4  0
  5  6  4  0
  6  7  4  0
  7  2  4  0
M  END
$$$$

     RDKit          3D

  7  7  0  0  0  0  0  0  0  0999 V2000
   -1.1742   -2.4834   -0.1469 F   0  0  0  0  0  0  0  0  0  0  0  0
   -0.6072   -1.2653    0.0468 C   0  0  0  0  0  0  0  0  0  0  0  0
    0.7851   -1.1483   -0.0076 C   0  0  0  0  0  0  0  0  0  0  0  0
    1.4045    0.1023    0.1553 C   0  0  0  0  0  0  0  0  0  0  0  0
    0.6039    1.2385    0.3580 C   0  0  0  0  0  0  0  0  0  0  0  0
   -0.7876    1.1242    0.4109 C   0  0  0  0  0  0  0  0  0  0  0  0
   -1.4060   -0.1281    0.2660 C   0  0  0  0  0  0  0  0  0  0  0  0
  1  2  1  0
  2  3  4  0
  3  4  4  0
  4  5  4  0
  5  6  4  0
  6  7  4  0
  7  2  4  0
M  END
$$$$

     RDKit          3D

  7  7  0  0  0  0  0  0  0  0999 V2000
    1.0629    2.1014    1.5561 F   0  0  0  0  0  0  0  0  0  0  0  0
    0.5502    1.0814    0.8216 C   0  0  0  0  0  0  0  0  0  0  0  0
   -0.8343    0.8856    0.8054 C   0  0  0  0  0  0  0  0  0  0  0  0
   -1.3974   -0.1798    0.0831 C   0  0  0  0  0  0  0  0  0  0  0  0
   -0.5481   -1.0572   -0.6111 C   0  0  0  0  0  0  0  0  0  0  0  0
    0.8356   -0.8646   -0.5949 C   0  0  0  0  0  0  0  0  0  0  0  0
    1.3974    0.2105    0.1123 C   0  0  0  0  0  0  0  0  0  0  0  0
  1  2  1  0
  2  3  4  0
  3  4  4  0
  4  5  4  0
  5  6  4  0
  6  7  4  0
  7  2  4  0
M  END
$$$$

     RDKit          3D

  7  7  0  0  0  0  0  0  0  0999 V2000
    1.3907   -2.3452   -0.6099 F   0  0  0  0  0  0  0  0  0  0  0  0
    0.7204   -1.1977   -0.3329 C   0  0  0  0  0  0  0  0  0  0  0  0
   -0.6738   -1.2338   -0.2308 C   0  0  0  0  0  0  0  0  0  0  0  0
   -1.4034   -0.0582    0.0132 C   0  0  0  0  0  0  0  0  0  0  0  0
   -0.7134    1.1589    0.1383 C   0  0  0  0  0  0  0  0  0  0  0  0
    0.6795    1.1974    0.0366 C   0  0  0  0  0  0  0  0  0  0  0  0
    1.4103    0.0201   -0.1901 C   0  0  0  0  0  0  0  0  0  0  0  0
  1  2  1  0
  2  3  4  0
  3  4  4  0
  4  5  4  0
  5  6  4  0
  6  7  4  0
  7  2  4  0
M  END
$$$$

     RDKit          3D

  7  7  0  0  0  0  0  0  0  0999 V2000
    1.2258   -1.8759    1.6748 F   0  0  0  0  0  0  0  0  0  0  0  0
    0.6348   -0.9680    0.8568 C   0  0  0  0  0  0  0  0  0  0  0  0
   -0.7612   -0.9213    0.7909 C   0  0  0  0  0  0  0  0  0  0  0  0
   -1.4077    0.0359   -0.0089 C   0  0  0  0  0  0  0  0  0  0  0  0
   -0.6313    0.9441   -0.7474 C   0  0  0  0  0  0  0  0  0  0  0  0
    0.7637    0.8994   -0.6831 C   0  0  0  0  0  0  0  0  0  0  0  0
    1.4101   -0.0600    0.1127 C   0  0  0  0  0  0  0  0  0  0  0  0
  1  2  1  0
  2  3  4  0
  3  4  4  0
  4  5  4  0
  5  6  4  0
  6  7  4  0
  7  2  4  0
M  END
$$$$

     RDKit          3D

  8  8  0  0  0  0  0  0  0  0999 V2000
    1.3293   -0.1215    2.5009 F   0  0  0  0  0  0  0  0  0  0  0  0
    0.6883   -0.0813    1.3050 C   0  0  0  0  0  0  0  0  0  0  0  0
   -0.7092   -0.0591    1.2852 C   0  0  0  0  0  0  0  0  0  0  0  0
   -1.4066    0.0148    0.0683 C   0  0  0  0  0  0  0  0  0  0  0  0
   -0.6795    0.0683   -1.1348 C   0  0  0  0  0  0  0  0  0  0  0  0
   -1.3205    0.1085   -2.3307 F   0  0  0  0  0  0  0  0  0  0  0  0
    0.7181    0.0460   -1.1150 C   0  0  0  0  0  0  0  0  0  0  0  0
    1.4154   -0.0278    0.1019 C   0  0  0  0  0  0  0  0  0  0  0  0
  1  2  1  0
  2  3  4  0
  3  4  4  0
  4  5  4  0
  5  6  1  0
  5  7  4  0
  7  8  4  0
  8  2  4  0
M  END
$$$$

     RDKit          3D

  8  8  0  0  0  0  0  0  0  0999 V2000
   -1.3519   -0.6060   -2.4881 F   0  0  0  0  0  0  0  0  0  0  0  0
   -0.6999   -0.2958   -1.3386 C   0  0  0  0  0  0  0  0  0  0  0  0
    0.6979   -0.3021   -1.3288 C   0  0  0  0  0  0  0  0  0  0  0  0
    1.4066   -0.0101   -0.1520 C   0  0  0  0  0  0  0  0  0  0  0  0
    0.6908    0.2896    1.0213 C   0  0  0  0  0  0  0  0  0  0  0  0
    1.3425    0.5529    2.1827 F   0  0  0  0  0  0  0  0  0  0  0  0
   -0.7070    0.2941    1.0121 C   0  0  0  0  0  0  0  0  0  0  0  0
   -1.4158    0.0025   -0.1649 C   0  0  0  0  0  0  0  0  0  0  0  0
  1  2  1  0
  2  3  4  0
  3  4  4  0
  4  5  4  0
  5  6  1  0
  5  7  4  0
  7  8  4  0
  8  2  4  0
M  END
$$$$

     RDKit          3D

  8  8  0  0  0  0  0  0  0  0999 V2000
    1.2623   -0.9257    2.4421 F   0  0  0  0  0  0  0  0  0  0  0  0
    0.6557   -0.4840    1.3110 C   0  0  0  0  0  0  0  0  0  0  0  0
   -0.7403   -0.4997    1.2395 C   0  0  0  0  0  0  0  0  0  0  0  0
   -1.4043   -0.0090    0.1031 C   0  0  0  0  0  0  0  0  0  0  0  0
   -0.6454    0.5060   -0.9637 C   0  0  0  0  0  0  0  0  0  0  0  0
   -1.2523    0.9653   -2.0877 F   0  0  0  0  0  0  0  0  0  0  0  0
    0.7506    0.5216   -0.8921 C   0  0  0  0  0  0  0  0  0  0  0  0
    1.4142    0.0208    0.2394 C   0  0  0  0  0  0  0  0  0  0  0  0
  1  2  1  0
  2  3  4  0
  3  4  4  0
  4  5  4  0
  5  6  1  0
  5  7  4  0
  7  8  4  0
  8  2  4  0
M  END
$$$$

     RDKit          3D

  8  8  0  0  0  0  0  0  0  0999 V2000
   -1.4439   -1.8810    1.4149 F   0  0  0  0  0  0  0  0  0  0  0  0
   -0.7460   -0.9639    0.6976 C   0  0  0  0  0  0  0  0  0  0  0  0
    0.6508   -0.9823    0.7501 C   0  0  0  0  0  0  0  0  0  0  0  0
    1.4053   -0.0268    0.0506 C   0  0  0  0  0  0  0  0  0  0  0  0
    0.7382    0.9431   -0.7192 C   0  0  0  0  0  0  0  0  0  0  0  0
    1.4369    1.8480   -1.4511 F   0  0  0  0  0  0  0  0  0  0  0  0
   -0.6586    0.9616   -0.7717 C   0  0  0  0  0  0  0  0  0  0  0  0
   -1.4140    0.0128   -0.0634 C   0  0  0  0  0  0  0  0  0  0  0  0
  1  2  1  0
  2  3  4  0
  3  4  4  0
  4  5  4  0
  5  6  1  0
  5  7  4  0
  7  8  4  0
  8  2  4  0
M  END
$$$$

     RDKit          3D

  8  8  0  0  0  0  0  0  0  0999 V2000
   -1.3094   -0.8143    2.1331 F   0  0  0  0  0  0  0  0  0  0  0  0
   -0.6785   -0.4215    0.9972 C   0  0  0  0  0  0  0  0  0  0  0  0
    0.7185   -0.3719    0.9796 C   0  0  0  0  0  0  0  0  0  0  0  0
    1.4046    0.0648   -0.1655 C   0  0  0  0  0  0  0  0  0  0  0  0
    0.6668    0.4575   -1.2973 C   0  0  0  0  0  0  0  0  0  0  0  0
    1.2956    0.9136   -2.4105 F   0  0  0  0  0  0  0  0  0  0  0  0
   -0.7301    0.4095   -1.2789 C   0  0  0  0  0  0  0  0  0  0  0  0
   -1.4153   -0.0380   -0.1379 C   0  0  0  0  0  0  0  0  0  0  0  0
  1  2  1  0
  2  3  4  0
  3  4  4  0
  4  5  4  0
  5  6  1  0
  5  7  4  0
  7  8  4  0
  8  2  4  0
M  END
$$$$

     RDKit          3D

  8  8  0  0  0  0  0  0  0  0999 V2000
   -1.5037   -0.2166    2.4219 F   0  0  0  0  0  0  0  0  0  0  0  0
   -0.7770   -0.0987    1.2815 C   0  0  0  0  0  0  0  0  0  0  0  0
    0.6180   -0.0695    1.3660 C   0  0  0  0  0  0  0  0  0  0  0  0
    1.4037    0.0144    0.2047 C   0  0  0  0  0  0  0  0  0  0  0  0
    0.7681    0.0644   -1.0494 C   0  0  0  0  0  0  0  0  0  0  0  0
    1.4963    0.1151   -2.1939 F   0  0  0  0  0  0  0  0  0  0  0  0
   -0.6269    0.0335   -1.1339 C   0  0  0  0  0  0  0  0  0  0  0  0
   -1.4121   -0.0388    0.0279 C   0  0  0  0  0  0  0  0  0  0  0  0
  1  2  1  0
  2  3  4  0
  3  4  4  0
  4  5  4  0
  5  6  1  0
  5  7  4  0
  7  8  4  0
  8  2  4  0
M  END
$$$$

     RDKit          3D

  8  8  0  0  0  0  0  0  0  0999 V2000
   -1.2789    2.0798    1.3702 F   0  0  0  0  0  0  0  0  0  0  0  0
   -0.6638    1.0586    0.7211 C   0  0  0  0  0  0  0  0  0  0  0  0
    0.7271    1.0824    0.5833 C   0  0  0  0  0  0  0  0  0  0  0  0
    1.3995    0.0339   -0.0648 C   0  0  0  0  0  0  0  0  0  0  0  0
    0.6573   -1.0537   -0.5594 C   0  0  0  0  0  0  0  0  0  0  0  0
    1.2792   -2.1063   -1.1494 F   0  0  0  0  0  0  0  0  0  0  0  0
   -0.7334   -1.0785   -0.4201 C   0  0  0  0  0  0  0  0  0  0  0  0
   -1.4075   -0.0244    0.2180 C   0  0  0  0  0  0  0  0  0  0  0  0
  1  2  1  0
  2  3  4  0
  3  4  4  0
  4  5  4  0
  5  6  1  0
  5  7  4  0
  7  8  4  0
  8  2  4  0
M  END
$$$$

     RDKit          3D

  8  8  0  0  0  0  0  0  0  0999 V2000
   -1.3488    2.0916    1.2035 F   0  0  0  0  0  0  0  0  0  0  0  0
   -0.6977    1.0530    0.6203 C   0  0  0  0  0  0  0  0  0  0  0  0
    0.6994    1.0672    0.5762 C   0  0  0  0  0  0  0  0  0  0  0  0
    1.4061    0.0198   -0.0362 C   0  0  0  0  0  0  0  0  0  0  0  0
    0.6898   -1.0388   -0.6232 C   0  0  0  0  0  0  0  0  0  0  0  0
    1.3390   -2.0437   -1.2646 F   0  0  0  0  0  0  0  0  0  0  0  0
   -0.7074   -1.0522   -0.5807 C   0  0  0  0  0  0  0  0  0  0  0  0
   -1.4145   -0.0104    0.0418 C   0  0  0  0  0  0  0  0  0  0  0  0
  1  2  1  0
  2  3  4  0
  3  4  4  0
  4  5  4  0
  5  6  1  0
  5  7  4  0
  7  8  4  0
  8  2  4  0
M  END
$$$$

     RDKit          3D

  8  8  0  0  0  0  0  0  0  0999 V2000
   -1.2878    2.3752   -0.5848 F   0  0  0  0  0  0  0  0  0  0  0  0
   -0.6678    1.2022   -0.2980 C   0  0  0  0  0  0  0  0  0  0  0  0
    0.7294    1.1609   -0.2767 C   0  0  0  0  0  0  0  0  0  0  0  0
    1.4054   -0.0454   -0.0324 C   0  0  0  0  0  0  0  0  0  0  0  0
    0.6586   -1.2139    0.2032 C   0  0  0  0  0  0  0  0  0  0  0  0
    1.2786   -2.3869    0.4900 F   0  0  0  0  0  0  0  0  0  0  0  0
   -0.7385   -1.1726    0.1819 C   0  0  0  0  0  0  0  0  0  0  0  0
   -1.4146    0.0337   -0.0623 C   0  0  0  0  0  0  0  0  0  0  0  0
  1  2  1  0
  2  3  4  0
  3  4  4  0
  4  5  4  0
  5  6  1  0
  5  7  4  0
  7  8  4  0
  8  2  4  0
M  END
$$$$

     RDKit          3D

  8  8  0  0  0  0  0  0  0  0999 V2000
    1.4708    0.5221   -2.3172 F   0  0  0  0  0  0  0  0  0  0  0  0
    0.7598    0.2746   -1.1877 C   0  0  0  0  0  0  0  0  0  0  0  0
   -0.6367    0.2901   -1.2479 C   0  0  0  0  0  0  0  0  0  0  0  0
   -1.4048    0.0067   -0.1070 C   0  0  0  0  0  0  0  0  0  0  0  0
   -0.7513   -0.3162    1.0960 C   0  0  0  0  0  0  0  0  0  0  0  0
   -1.4623   -0.6475    2.2039 F   0  0  0  0  0  0  0  0  0  0  0  0
    0.6452   -0.3334    1.1558 C   0  0  0  0  0  0  0  0  0  0  0  0
    1.4133   -0.0280    0.0207 C   0  0  0  0  0  0  0  0  0  0  0  0
  1  2  1  0
  2  3  4  0
  3  4  4  0
  4  5  4  0
  5  6  1  0
  5  7  4  0
  7  8  4  0
  8  2  4  0
M  END
$$$$

     RDKit          3D

  8  8  0  0  0  0  0  0  0  0999 V2000
   -1.6097   -1.6764    1.3118 F   0  0  0  0  0  0  0  0  0  0  0  0
   -0.8301   -0.7873    0.6449 C   0  0  0  0  0  0  0  0  0  0  0  0
    0.5583   -0.8582    0.7911 C   0  0  0  0  0  0  0  0  0  0  0  0
    1.3949    0.0683    0.1452 C   0  0  0  0  0  0  0  0  0  0  0  0
    0.8125    1.0703   -0.6500 C   0  0  0  0  0  0  0  0  0  0  0  0
   -0.5754    1.1447   -0.7990 C   0  0  0  0  0  0  0  0  0  0  0  0
   -1.1028    2.1100   -1.5947 F   0  0  0  0  0  0  0  0  0  0  0  0
   -1.4093    0.2133   -0.1556 C   0  0  0  0  0  0  0  0  0  0  0  0
  1  2  1  0
  2  3  4  0
  3  4  4  0
  4  5  4  0
  5  6  4  0
  6  7  1  0
  6  8  4  0
  8  2  4  0
M  END
$$$$

     RDKit          3D

  8  8  0  0  0  0  0  0  0  0999 V2000
   -1.4821   -1.7435   -1.5240 F   0  0  0  0  0  0  0  0  0  0  0  0
   -0.7666   -0.8723   -0.7675 C   0  0  0  0  0  0  0  0  0  0  0  0
    0.6294   -0.9040   -0.8319 C   0  0  0  0  0  0  0  0  0  0  0  0
    1.4027   -0.0344   -0.0437 C   0  0  0  0  0  0  0  0  0  0  0  0
    0.7493    0.8705    0.8105 C   0  0  0  0  0  0  0  0  0  0  0  0
   -0.6465    0.9056    0.8779 C   0  0  0  0  0  0  0  0  0  0  0  0
   -1.2450    1.8167    1.6870 F   0  0  0  0  0  0  0  0  0  0  0  0
   -1.4173    0.0307    0.0918 C   0  0  0  0  0  0  0  0  0  0  0  0
  1  2  1  0
  2  3  4  0
  3  4  4  0
  4  5  4  0
  5  6  4  0
  6  7  1  0
  6  8  4  0
  8  2  4  0
M  END
$$$$

     RDKit          3D

  8  8  0  0  0  0  0  0  0  0999 V2000
   -1.4973    2.1416   -0.9920 F   0  0  0  0  0  0  0  0  0  0  0  0
   -0.7737    1.0808   -0.5513 C   0  0  0  0  0  0  0  0  0  0  0  0
    0.6218    1.1413   -0.6039 C   0  0  0  0  0  0  0  0  0  0  0  0
    1.4027    0.0560   -0.1704 C   0  0  0  0  0  0  0  0  0  0  0  0
    0.7573   -1.0929    0.3185 C   0  0  0  0  0  0  0  0  0  0  0  0
   -0.6381   -1.1583    0.3710 C   0  0  0  0  0  0  0  0  0  0  0  0
   -1.2276   -2.2734    0.8729 F   0  0  0  0  0  0  0  0  0  0  0  0
   -1.4165   -0.0723   -0.0673 C   0  0  0  0  0  0  0  0  0  0  0  0
  1  2  1  0
  2  3  4  0
  3  4  4  0
  4  5  4  0
  5  6  4  0
  6  7  1  0
  6  8  4  0
  8  2  4  0
M  END
$$$$

     RDKit          3D

  8  8  0  0  0  0  0  0  0  0999 V2000
    1.1966    1.1562    2.1608 F   0  0  0  0  0  0  0  0  0  0  0  0
    0.6206    0.5715    1.0793 C   0  0  0  0  0  0  0  0  0  0  0  0
   -0.7681    0.6342    0.9327 C   0  0  0  0  0  0  0  0  0  0  0  0
   -1.3966    0.0630   -0.1873 C   0  0  0  0  0  0  0  0  0  0  0  0
   -0.6053   -0.5707   -1.1608 C   0  0  0  0  0  0  0  0  0  0  0  0
    0.7839   -0.6338   -1.0190 C   0  0  0  0  0  0  0  0  0  0  0  0
    1.5163   -1.2667   -1.9708 F   0  0  0  0  0  0  0  0  0  0  0  0
    1.4091   -0.0668    0.1056 C   0  0  0  0  0  0  0  0  0  0  0  0
  1  2  1  0
  2  3  4  0
  3  4  4  0
  4  5  4  0
  5  6  4  0
  6  7  1  0
  6  8  4  0
  8  2  4  0
M  END
$$$$

     RDKit          3D

  8  8  0  0  0  0  0  0  0  0999 V2000
   -1.3519    1.1028   -2.1472 F   0  0  0  0  0  0  0  0  0  0  0  0
   -0.7015    0.5716   -1.0806 C   0  0  0  0  0  0  0  0  0  0  0  0
    0.6951    0.6188   -1.0445 C   0  0  0  0  0  0  0  0  0  0  0  0
    1.4034    0.0558    0.0312 C   0  0  0  0  0  0  0  0  0  0  0  0
    0.6842   -0.5593    1.0704 C   0  0  0  0  0  0  0  0  0  0  0  0
   -0.7123   -0.6104    1.0372 C   0  0  0  0  0  0  0  0  0  0  0  0
   -1.3757   -1.1990    2.0651 F   0  0  0  0  0  0  0  0  0  0  0  0
   -1.4181   -0.0409   -0.0372 C   0  0  0  0  0  0  0  0  0  0  0  0
  1  2  1  0
  2  3  4  0
  3  4  4  0
  4  5  4  0
  5  6  4  0
  6  7  1  0
  6  8  4  0
  8  2  4  0
M  END
$$$$

     RDKit          3D

  8  8  0  0  0  0  0  0  0  0999 V2000
    1.1982    0.7233   -2.3499 F   0  0  0  0  0  0  0  0  0  0  0  0
    0.6230    0.3218   -1.1875 C   0  0  0  0  0  0  0  0  0  0  0  0
   -0.7713    0.2980   -1.0921 C   0  0  0  0  0  0  0  0  0  0  0  0
   -1.4010   -0.0975    0.1006 C   0  0  0  0  0  0  0  0  0  0  0  0
   -0.6054   -0.4702    1.1977 C   0  0  0  0  0  0  0  0  0  0  0  0
    0.7894   -0.4460    1.1071 C   0  0  0  0  0  0  0  0  0  0  0  0
    1.5266   -0.8369    2.1779 F   0  0  0  0  0  0  0  0  0  0  0  0
    1.4163   -0.0459   -0.0864 C   0  0  0  0  0  0  0  0  0  0  0  0
  1  2  1  0
  2  3  4  0
  3  4  4  0
  4  5  4  0
  5  6  4  0
  6  7  1  0
  6  8  4  0
  8  2  4  0
M  END
$$$$

     RDKit          3D

  8  8  0  0  0  0  0  0  0  0999 V2000
    1.4095   -1.9098   -1.5065 F   0  0  0  0  0  0  0  0  0  0  0  0
    0.7296   -0.9544   -0.8225 C   0  0  0  0  0  0  0  0  0  0  0  0
   -0.6678   -0.9894   -0.8150 C   0  0  0  0  0  0  0  0  0  0  0  0
   -1.4045   -0.0321   -0.0962 C   0  0  0  0  0  0  0  0  0  0  0  0
   -0.7128    0.9610    0.6185 C   0  0  0  0  0  0  0  0  0  0  0  0
    0.6845    0.9984    0.6152 C   0  0  0  0  0  0  0  0  0  0  0  0
    1.3200    1.9804    1.3044 F   0  0  0  0  0  0  0  0  0  0  0  0
    1.4185    0.0430   -0.1097 C   0  0  0  0  0  0  0  0  0  0  0  0
  1  2  1  0
  2  3  4  0
  3  4  4  0
  4  5  4  0
  5  6  4  0
  6  7  1  0
  6  8  4  0
  8  2  4  0
M  END
$$$$

     RDKit          3D

  8  8  0  0  0  0  0  0  0  0999 V2000
   -1.4168    2.3411   -0.5516 F   0  0  0  0  0  0  0  0  0  0  0  0
   -0.7328    1.1802   -0.3859 C   0  0  0  0  0  0  0  0  0  0  0  0
    0.6630    1.2175   -0.3197 C   0  0  0  0  0  0  0  0  0  0  0  0
    1.4030    0.0371   -0.1334 C   0  0  0  0  0  0  0  0  0  0  0  0
    0.7164   -1.1837   -0.0155 C   0  0  0  0  0  0  0  0  0  0  0  0
   -0.6794   -1.2251   -0.0792 C   0  0  0  0  0  0  0  0  0  0  0  0
   -1.3084   -2.4246    0.0128 F   0  0  0  0  0  0  0  0  0  0  0  0
   -1.4170   -0.0418   -0.2615 C   0  0  0  0  0  0  0  0  0  0  0  0
  1  2  1  0
  2  3  4  0
  3  4  4  0
  4  5  4  0
  5  6  4  0
  6  7  1  0
  6  8  4  0
  8  2  4  0
M  END
$$$$

     RDKit          3D

  8  8  0  0  0  0  0  0  0  0999 V2000
   -1.2999   -1.5045    1.8912 F   0  0  0  0  0  0  0  0  0  0  0  0
   -0.6742   -0.7523    0.9501 C   0  0  0  0  0  0  0  0  0  0  0  0
    0.7230   -0.7421    0.9071 C   0  0  0  0  0  0  0  0  0  0  0  0
    1.4042    0.0129   -0.0631 C   0  0  0  0  0  0  0  0  0  0  0  0
    0.6574    0.7597   -0.9906 C   0  0  0  0  0  0  0  0  0  0  0  0
   -0.7399    0.7507   -0.9523 C   0  0  0  0  0  0  0  0  0  0  0  0
   -1.4290    1.5038   -1.8473 F   0  0  0  0  0  0  0  0  0  0  0  0
   -1.4185   -0.0090    0.0171 C   0  0  0  0  0  0  0  0  0  0  0  0
  1  2  1  0
  2  3  4  0
  3  4  4  0
  4  5  4  0
  5  6  4  0
  6  7  1  0
  6  8  4  0
  8  2  4  0
M  END
$$$$

     RDKit          3D

  8  8  0  0  0  0  0  0  0  0999 V2000
    1.2754    0.0786    2.6386 F   0  0  0  0  0  0  0  0  0  0  0  0
    0.6621    0.0249    1.4287 C   0  0  0  0  0  0  0  0  0  0  0  0
   -0.7347    0.0368    1.3744 C   0  0  0  0  0  0  0  0  0  0  0  0
   -1.4038    0.0088    0.1386 C   0  0  0  0  0  0  0  0  0  0  0  0
   -0.6451   -0.0283   -1.0440 C   0  0  0  0  0  0  0  0  0  0  0  0
    0.7518   -0.0383   -0.9942 C   0  0  0  0  0  0  0  0  0  0  0  0
    1.4532   -0.0895   -2.1554 F   0  0  0  0  0  0  0  0  0  0  0  0
    1.4181   -0.0164    0.2438 C   0  0  0  0  0  0  0  0  0  0  0  0
  1  2  1  0
  2  3  4  0
  3  4  4  0
  4  5  4  0
  5  6  4  0
  6  7  1  0
  6  8  4  0
  8  2  4  0
M  END
$$$$

     RDKit          3D

  8  8  0  0  0  0  0  0  0  0999 V2000
    1.4205   -1.2939    2.0403 F   0  0  0  0  0  0  0  0  0  0  0  0
    0.7350   -0.6481    1.0626 C   0  0  0  0  0  0  0  0  0  0  0  0
   -0.6618   -0.7025    1.0625 C   0  0  0  0  0  0  0  0  0  0  0  0
   -1.4037   -0.0586    0.0573 C   0  0  0  0  0  0  0  0  0  0  0  0
   -0.7179    0.6430   -0.9493 C   0  0  0  0  0  0  0  0  0  0  0  0
    0.6788    0.6982   -0.9541 C   0  0  0  0  0  0  0  0  0  0  0  0
    1.3075    1.4061   -1.9270 F   0  0  0  0  0  0  0  0  0  0  0  0
    1.4182    0.0494    0.0508 C   0  0  0  0  0  0  0  0  0  0  0  0
  1  2  1  0
  2  3  4  0
  3  4  4  0
  4  5  4  0
  5  6  4  0
  6  7  1  0
  6  8  4  0
  8  2  4  0
M  END
$$$$

     RDKit          3D

  8  8  0  0  0  0  0  0  0  0999 V2000
   -1.6289   -1.1673   -1.8445 F   0  0  0  0  0  0  0  0  0  0  0  0
   -0.8421   -0.5383   -0.9344 C   0  0  0  0  0  0  0  0  0  0  0  0
    0.5342   -0.4596   -1.1657 C   0  0  0  0  0  0  0  0  0  0  0  0
    1.3830    0.1610   -0.2330 C   0  0  0  0  0  0  0  0  0  0  0  0
    0.8257    0.6997    0.9395 C   0  0  0  0  0  0  0  0  0  0  0  0
   -0.5498    0.6213    1.1757 C   0  0  0  0  0  0  0  0  0  0  0  0
   -1.0564    1.1653    2.3117 F   0  0  0  0  0  0  0  0  0  0  0  0
   -1.3971    0.0052    0.2378 C   0  0  0  0  0  0  0  0  0  0  0  0
  1  2  1  0
  2  3  4  0
  3  4  4  0
  4  5  4  0
  5  6  4  0
  6  7  1  0
  6  8  4  0
  8  2  4  0
M  END
$$$$

     RDKit          3D

  7  7  0  0  0  0  0  0  0  0999 V2000
   -1.4843   -1.2997   -1.8203 F   0  0  0  0  0  0  0  0  0  0  0  0
   -0.7648   -0.6700   -0.8567 C   0  0  0  0  0  0  0  0  0  0  0  0
    0.6257   -0.8176   -0.8427 C   0  0  0  0  0  0  0  0  0  0  0  0
    1.4051   -0.1570    0.1217 C   0  0  0  0  0  0  0  0  0  0  0  0
    0.7686    0.6644    1.0665 C   0  0  0  0  0  0  0  0  0  0  0  0
   -0.6205    0.8136    1.0546 C   0  0  0  0  0  0  0  0  0  0  0  0
   -1.4009    0.1486    0.0947 C   0  0  0  0  0  0  0  0  0  0  0  0
  1  2  1  0
  2  3  4  0
  3  4  4  0
  4  5  4  0
  5  6  4  0
  6  7  4  0
  7  2  4  0
M  END
$$$$

     RDKit          3D

  7  7  0  0  0  0  0  0  0  0999 V2000
   -1.3828   -1.7966    1.6858 F   0  0  0  0  0  0  0  0  0  0  0  0
   -0.7118   -0.9214    0.8942 C   0  0  0  0  0  0  0  0  0  0  0  0
    0.6864   -0.9213    0.9157 C   0  0  0  0  0  0  0  0  0  0  0  0
    1.4134   -0.0098    0.1320 C   0  0  0  0  0  0  0  0  0  0  0  0
    0.7155    0.9110   -0.6666 C   0  0  0  0  0  0  0  0  0  0  0  0
   -0.6814    0.9130   -0.6898 C   0  0  0  0  0  0  0  0  0  0  0  0
   -1.4089   -0.0021    0.0886 C   0  0  0  0  0  0  0  0  0  0  0  0
  1  2  1  0
  2  3  4  0
  3  4  4  0
  4  5  4  0
  5  6  4  0
  6  7  4  0
  7  2  4  0
M  END
$$$$

     RDKit          3D

  7  7  0  0  0  0  0  0  0  0999 V2000
    1.2676    2.4410    0.1966 F   0  0  0  0  0  0  0  0  0  0  0  0
    0.6538    1.2339    0.1019 C   0  0  0  0  0  0  0  0  0  0  0  0
   -0.7431    1.1788    0.1331 C   0  0  0  0  0  0  0  0  0  0  0  0
   -1.4134   -0.0490    0.0031 C   0  0  0  0  0  0  0  0  0  0  0  0
   -0.6597   -1.2244   -0.1497 C   0  0  0  0  0  0  0  0  0  0  0  0
    0.7361   -1.1719   -0.1813 C   0  0  0  0  0  0  0  0  0  0  0  0
    1.4067    0.0560   -0.0578 C   0  0  0  0  0  0  0  0  0  0  0  0
  1  2  1  0
  2  3  4  0
  3  4  4  0
  4  5  4  0
  5  6  4  0
  6  7  4  0
  7  2  4  0
M  END
$$$$

     RDKit          3D

  7  7  0  0  0  0  0  0  0  0999 V2000
    1.3586    2.2392    0.5255 F   0  0  0  0  0  0  0  0  0  0  0  0
    0.7032    1.0737    0.2910 C   0  0  0  0  0  0  0  0  0  0  0  0
   -0.6840    1.0289    0.4616 C   0  0  0  0  0  0  0  0  0  0  0  0
   -1.4003   -0.1484    0.1878 C   0  0  0  0  0  0  0  0  0  0  0  0
   -0.7049   -1.2775   -0.2754 C   0  0  0  0  0  0  0  0  0  0  0  0
    0.6811   -1.2350   -0.4467 C   0  0  0  0  0  0  0  0  0  0  0  0
    1.3994   -0.0639   -0.1567 C   0  0  0  0  0  0  0  0  0  0  0  0
  1  2  1  0
  2  3  4  0
  3  4  4  0
  4  5  4  0
  5  6  4  0
  6  7  4  0
  7  2  4  0
M  END
$$$$

     RDKit          3D

  7  7  0  0  0  0  0  0  0  0999 V2000
   -1.3152   -0.8994   -2.2071 F   0  0  0  0  0  0  0  0  0  0  0  0
   -0.6779   -0.4639   -1.0904 C   0  0  0  0  0  0  0  0  0  0  0  0
    0.7202   -0.4542   -1.0672 C   0  0  0  0  0  0  0  0  0  0  0  0
    1.4134    0.0091    0.0635 C   0  0  0  0  0  0  0  0  0  0  0  0
    0.6818    0.4749    1.1683 C   0  0  0  0  0  0  0  0  0  0  0  0
   -0.7152    0.4679    1.1468 C   0  0  0  0  0  0  0  0  0  0  0  0
   -1.4089   -0.0017    0.0195 C   0  0  0  0  0  0  0  0  0  0  0  0
  1  2  1  0
  2  3  4  0
  3  4  4  0
  4  5  4  0
  5  6  4  0
  6  7  4  0
  7  2  4  0
M  END
$$$$

     RDKit          3D

  7  7  0  0  0  0  0  0  0  0999 V2000
    1.2781   -0.7188   -2.3682 F   0  0  0  0  0  0  0  0  0  0  0  0
    0.6595   -0.4120   -1.1995 C   0  0  0  0  0  0  0  0  0  0  0  0
   -0.7356   -0.4784   -1.1323 C   0  0  0  0  0  0  0  0  0  0  0  0
   -1.4108   -0.1480    0.0546 C   0  0  0  0  0  0  0  0  0  0  0  0
   -0.6650    0.2623    1.1717 C   0  0  0  0  0  0  0  0  0  0  0  0
    0.7290    0.3311    1.1066 C   0  0  0  0  0  0  0  0  0  0  0  0
    1.4051   -0.0057   -0.0775 C   0  0  0  0  0  0  0  0  0  0  0  0
  1  2  1  0
  2  3  4  0
  3  4  4  0
  4  5  4  0
  5  6  4  0
  6  7  4  0
  7  2  4  0
M  END
$$$$

     RDKit          3D

  7  7  0  0  0  0  0  0  0  0999 V2000
    1.2907   -0.1312   -2.3397 F   0  0  0  0  0  0  0  0  0  0  0  0
    0.6658   -0.0839   -1.1356 C   0  0  0  0  0  0  0  0  0  0  0  0
   -0.7319   -0.0963   -1.0952 C   0  0  0  0  0  0  0  0  0  0  0  0
   -1.4128   -0.0014    0.1300 C   0  0  0  0  0  0  0  0  0  0  0  0
   -0.6692    0.1008    1.3173 C   0  0  0  0  0  0  0  0  0  0  0  0
    0.7274    0.1134    1.2795 C   0  0  0  0  0  0  0  0  0  0  0  0
    1.4082    0.0141    0.0555 C   0  0  0  0  0  0  0  0  0  0  0  0
  1  2  1  0
  2  3  4  0
  3  4  4  0
  4  5  4  0
  5  6  4  0
  6  7  4  0
  7  2  4  0
M  END
$$$$

     RDKit          3D

  7  7  0  0  0  0  0  0  0  0999 V2000
    1.5639   -1.4461    1.8224 F   0  0  0  0  0  0  0  0  0  0  0  0
    0.8015   -0.7899    0.9108 C   0  0  0  0  0  0  0  0  0  0  0  0
   -0.5826   -0.7305    1.1003 C   0  0  0  0  0  0  0  0  0  0  0  0
   -1.3989   -0.0319    0.1950 C   0  0  0  0  0  0  0  0  0  0  0  0
   -0.8031    0.6210   -0.8966 C   0  0  0  0  0  0  0  0  0  0  0  0
    0.5799    0.5646   -1.0870 C   0  0  0  0  0  0  0  0  0  0  0  0
    1.3940   -0.1484   -0.1923 C   0  0  0  0  0  0  0  0  0  0  0  0
  1  2  1  0
  2  3  4  0
  3  4  4  0
  4  5  4  0
  5  6  4  0
  6  7  4  0
  7  2  4  0
M  END
$$$$

     RDKit          3D

  7  7  0  0  0  0  0  0  0  0999 V2000
    1.2034   -0.7744   -2.3868 F   0  0  0  0  0  0  0  0  0  0  0  0
    0.6210   -0.4295   -1.2101 C   0  0  0  0  0  0  0  0  0  0  0  0
   -0.7738   -0.4456   -1.1130 C   0  0  0  0  0  0  0  0  0  0  0  0
   -1.4100   -0.1230    0.0974 C   0  0  0  0  0  0  0  0  0  0  0  0
   -0.6242    0.2055    1.2141 C   0  0  0  0  0  0  0  0  0  0  0  0
    0.7697    0.2223    1.1196 C   0  0  0  0  0  0  0  0  0  0  0  0
    1.4062   -0.0939   -0.0917 C   0  0  0  0  0  0  0  0  0  0  0  0
  1  2  1  0
  2  3  4  0
  3  4  4  0
  4  5  4  0
  5  6  4  0
  6  7  4  0
  7  2  4  0
M  END
$$$$

     RDKit          3D

  7  7  0  0  0  0  0  0  0  0999 V2000
    1.3550    1.8954   -1.7158 F   0  0  0  0  0  0  0  0  0  0  0  0
    0.6993    0.9753   -0.9635 C   0  0  0  0  0  0  0  0  0  0  0  0
   -0.6952    1.0363   -0.8795 C   0  0  0  0  0  0  0  0  0  0  0  0
   -1.4095    0.0779   -0.1410 C   0  0  0  0  0  0  0  0  0  0  0  0
   -0.7024   -0.9417    0.5172 C   0  0  0  0  0  0  0  0  0  0  0  0
    0.6907   -1.0057    0.4333 C   0  0  0  0  0  0  0  0  0  0  0  0
    1.4053   -0.0452   -0.3004 C   0  0  0  0  0  0  0  0  0  0  0  0
  1  2  1  0
  2  3  4  0
  3  4  4  0
  4  5  4  0
  5  6  4  0
  6  7  4  0
  7  2  4  0
M  END
$$$$

     RDKit          3D

  7  7  0  0  0  0  0  0  0  0999 V2000
    1.2757   -2.3777   -0.7240 F   0  0  0  0  0  0  0  0  0  0  0  0
    0.6587   -1.2150   -0.3921 C   0  0  0  0  0  0  0  0  0  0  0  0
   -0.7383   -1.1780   -0.3424 C   0  0  0  0  0  0  0  0  0  0  0  0
   -1.4116    0.0183   -0.0435 C   0  0  0  0  0  0  0  0  0  0  0  0
   -0.6617    1.1828    0.1900 C   0  0  0  0  0  0  0  0  0  0  0  0
    0.7342    1.1483    0.1409 C   0  0  0  0  0  0  0  0  0  0  0  0
    1.4079   -0.0509   -0.1409 C   0  0  0  0  0  0  0  0  0  0  0  0
  1  2  1  0
  2  3  4  0
  3  4  4  0
  4  5  4  0
  5  6  4  0
  6  7  4  0
  7  2  4  0
M  END
$$$$

     RDKit          3D

  7  7  0  0  0  0  0  0  0  0999 V2000
    1.3683    1.6246   -1.8566 F   0  0  0  0  0  0  0  0  0  0  0  0
    0.7045    0.8443   -0.9660 C   0  0  0  0  0  0  0  0  0  0  0  0
   -0.6934    0.8218   -0.9929 C   0  0  0  0  0  0  0  0  0  0  0  0
   -1.4122   -0.0093   -0.1175 C   0  0  0  0  0  0  0  0  0  0  0  0
   -0.7066   -0.8152    0.7912 C   0  0  0  0  0  0  0  0  0  0  0  0
    0.6901   -0.7944    0.8199 C   0  0  0  0  0  0  0  0  0  0  0  0
    1.4087    0.0394   -0.0519 C   0  0  0  0  0  0  0  0  0  0  0  0
  1  2  1  0
  2  3  4  0
  3  4  4  0
  4  5  4  0
  5  6  4  0
  6  7  4  0
  7  2  4  0
M  END
$$$$

     RDKit          3D

  7  7  0  0  0  0  0  0  0  0999 V2000
    1.0115   -2.5587    0.1845 F   0  0  0  0  0  0  0  0  0  0  0  0
    0.5226   -1.3074   -0.0098 C   0  0  0  0  0  0  0  0  0  0  0  0
   -0.8617   -1.1100    0.0020 C   0  0  0  0  0  0  0  0  0  0  0  0
   -1.4019    0.1765   -0.1628 C   0  0  0  0  0  0  0  0  0  0  0  0
   -0.5306    1.2664   -0.3238 C   0  0  0  0  0  0  0  0  0  0  0  0
    0.8529    1.0719   -0.3342 C   0  0  0  0  0  0  0  0  0  0  0  0
    1.3926   -0.2161   -0.1874 C   0  0  0  0  0  0  0  0  0  0  0  0
  1  2  1  0
  2  3  4  0
  3  4  4  0
  4  5  4  0
  5  6  4  0
  6  7  4  0
  7  2  4  0
M  END
$$$$

     RDKit          3D

  7  7  0  0  0  0  0  0  0  0999 V2000
   -1.2793    0.3548    2.5862 F   0  0  0  0  0  0  0  0  0  0  0  0
   -0.6595    0.1580    1.3946 C   0  0  0  0  0  0  0  0  0  0  0  0
    0.7380    0.1633    1.3473 C   0  0  0  0  0  0  0  0  0  0  0  0
    1.4127   -0.0042    0.1264 C   0  0  0  0  0  0  0  0  0  0  0  0
    0.6631   -0.1615   -1.0510 C   0  0  0  0  0  0  0  0  0  0  0  0
   -0.7334   -0.1654   -1.0064 C   0  0  0  0  0  0  0  0  0  0  0  0
   -1.4079   -0.0158    0.2160 C   0  0  0  0  0  0  0  0  0  0  0  0
  1  2  1  0
  2  3  4  0
  3  4  4  0
  4  5  4  0
  5  6  4  0
  6  7  4  0
  7  2  4  0
M  END
$$$$

     RDKit          3D

  7  7  0  0  0  0  0  0  0  0999 V2000
    0.9975    2.5640    0.3574 F   0  0  0  0  0  0  0  0  0  0  0  0
    0.5175    1.3072    0.1766 C   0  0  0  0  0  0  0  0  0  0  0  0
   -0.8641    1.1163    0.0752 C   0  0  0  0  0  0  0  0  0  0  0  0
   -1.3984   -0.1745   -0.0743 C   0  0  0  0  0  0  0  0  0  0  0  0
   -0.5241   -1.2727   -0.1255 C   0  0  0  0  0  0  0  0  0  0  0  0
    0.8564   -1.0846   -0.0226 C   0  0  0  0  0  0  0  0  0  0  0  0
    1.3910    0.2057    0.1217 C   0  0  0  0  0  0  0  0  0  0  0  0
  1  2  1  0
  2  3  4  0
  3  4  4  0
  4  5  4  0
  5  6  4  0
  6  7  4  0
  7  2  4  0
M  END
$$$$
