
     RDKit          3D

  8  8  0  0  0  0  0  0  0  0999 V2000
    0.1678    1.9250    2.2712 C   0  0  0  0  0  0  0  0  0  0  0  0
   -0.4758    2.4700    1.2122 C   0  0  0  0  0  0  0  0  0  0  0  0
   -0.9962    3.8655    1.2999 C   0  0  0  0  0  0  0  0  0  0  0  0
   -2.2080    4.2104    0.6705 C   0  0  0  0  0  0  0  0  0  0  0  0
   -2.6884    5.5222    0.7261 C   0  0  0  0  0  0  0  0  0  0  0  0
   -1.9683    6.5054    1.4060 C   0  0  0  0  0  0  0  0  0  0  0  0
   -0.7665    6.1785    2.0335 C   0  0  0  0  0  0  0  0  0  0  0  0
   -0.2769    4.8697    1.9790 C   0  0  0  0  0  0  0  0  0  0  0  0
  1  2  2  0
  2  3  1  0
  3  4  4  0
  4  5  4  0
  5  6  4  0
  6  7  4  0
  7  8  4  0
  8  3  4  0
M  END
$$$$

     RDKit          3D

  8  8  0  0  0  0  0  0  0  0999 V2000
   -0.9117   -3.0473    0.3507 C   0  0  0  0  0  0  0  0  0  0  0  0
    0.3771   -2.7415    0.0714 C   0  0  0  0  0  0  0  0  0  0  0  0
    1.4798   -3.6661    0.4540 C   0  0  0  0  0  0  0  0  0  0  0  0
    2.6229   -3.7826   -0.3608 C   0  0  0  0  0  0  0  0  0  0  0  0
    3.6662   -4.6415   -0.0028 C   0  0  0  0  0  0  0  0  0  0  0  0
    3.5859   -5.3892    1.1736 C   0  0  0  0  0  0  0  0  0  0  0  0
    2.4636   -5.2763    1.9968 C   0  0  0  0  0  0  0  0  0  0  0  0
    1.4167   -4.4192    1.6439 C   0  0  0  0  0  0  0  0  0  0  0  0
  1  2  2  0
  2  3  1  0
  3  4  4  0
  4  5  4  0
  5  6  4  0
  6  7  4  0
  7  8  4  0
  8  3  4  0
M  END
$$$$

     RDKit          3D

  8  8  0  0  0  0  0  0  0  0999 V2000
   -0.9094    0.2207   -2.3894 C   0  0  0  0  0  0  0  0  0  0  0  0
    0.4055    0.2366   -2.7044 C   0  0  0  0  0  0  0  0  0  0  0  0
    0.8479   -0.2209   -4.0500 C   0  0  0  0  0  0  0  0  0  0  0  0
    2.0231   -0.9836   -4.1881 C   0  0  0  0  0  0  0  0  0  0  0  0
    2.4491   -1.4069   -5.4506 C   0  0  0  0  0  0  0  0  0  0  0  0
    1.7114   -1.0719   -6.5881 C   0  0  0  0  0  0  0  0  0  0  0  0
    0.5468   -0.3108   -6.4657 C   0  0  0  0  0  0  0  0  0  0  0  0
    0.1157    0.1150   -5.2057 C   0  0  0  0  0  0  0  0  0  0  0  0
  1  2  2  0
  2  3  1  0
  3  4  4  0
  4  5  4  0
  5  6  4  0
  6  7  4  0
  7  8  4  0
  8  3  4  0
M  END
$$$$

     RDKit          3D

  8  8  0  0  0  0  0  0  0  0999 V2000
   -0.2361   -1.2081    0.6295 C   0  0  0  0  0  0  0  0  0  0  0  0
   -0.5569    0.0762    0.9064 C   0  0  0  0  0  0  0  0  0  0  0  0
    0.4721    1.0783    1.2889 C   0  0  0  0  0  0  0  0  0  0  0  0
    1.3646    0.8277    2.3470 C   0  0  0  0  0  0  0  0  0  0  0  0
    2.3377    1.7722    2.6863 C   0  0  0  0  0  0  0  0  0  0  0  0
    2.4199    2.9768    1.9831 C   0  0  0  0  0  0  0  0  0  0  0  0
    1.5248    3.2419    0.9433 C   0  0  0  0  0  0  0  0  0  0  0  0
    0.5504    2.3000    0.5997 C   0  0  0  0  0  0  0  0  0  0  0  0
  1  2  2  0
  2  3  1  0
  3  4  4  0
  4  5  4  0
  5  6  4  0
  6  7  4  0
  7  8  4  0
  8  3  4  0
M  END
$$$$

     RDKit          3D

  8  8  0  0  0  0  0  0  0  0999 V2000
   -0.5480    0.5153   -1.9266 C   0  0  0  0  0  0  0  0  0  0  0  0
    0.3321    0.0962   -0.9894 C   0  0  0  0  0  0  0  0  0  0  0  0
    0.0235    0.1618    0.4635 C   0  0  0  0  0  0  0  0  0  0  0  0
    0.1815   -0.9811    1.2654 C   0  0  0  0  0  0  0  0  0  0  0  0
   -0.1134   -0.9303    2.6310 C   0  0  0  0  0  0  0  0  0  0  0  0
   -0.5581    0.2622    3.2081 C   0  0  0  0  0  0  0  0  0  0  0  0
   -0.7008    1.4086    2.4221 C   0  0  0  0  0  0  0  0  0  0  0  0
   -0.4046    1.3633    1.0567 C   0  0  0  0  0  0  0  0  0  0  0  0
  1  2  2  0
  2  3  1  0
  3  4  4  0
  4  5  4  0
  5  6  4  0
  6  7  4  0
  7  8  4  0
  8  3  4  0
M  END
$$$$

     RDKit          3D

  8  8  0  0  0  0  0  0  0  0999 V2000
    0.6164   -1.7405    0.8219 C   0  0  0  0  0  0  0  0  0  0  0  0
   -0.2917   -0.9352    0.2277 C   0  0  0  0  0  0  0  0  0  0  0  0
   -0.0289    0.5070   -0.0170 C   0  0  0  0  0  0  0  0  0  0  0  0
   -0.2197    1.0444   -1.3010 C   0  0  0  0  0  0  0  0  0  0  0  0
    0.0363    2.3970   -1.5441 C   0  0  0  0  0  0  0  0  0  0  0  0
    0.4768    3.2240   -0.5076 C   0  0  0  0  0  0  0  0  0  0  0  0
    0.6536    2.7021    0.7765 C   0  0  0  0  0  0  0  0  0  0  0  0
    0.3940    1.3515    1.0255 C   0  0  0  0  0  0  0  0  0  0  0  0
  1  2  2  0
  2  3  1  0
  3  4  4  0
  4  5  4  0
  5  6  4  0
  6  7  4  0
  7  8  4  0
  8  3  4  0
M  END
$$$$

     RDKit          3D

  8  8  0  0  0  0  0  0  0  0999 V2000
    0.1305   -0.1001    1.4563 C   0  0  0  0  0  0  0  0  0  0  0  0
    0.6214    0.8134    0.5886 C   0  0  0  0  0  0  0  0  0  0  0  0
   -0.2548    1.8067   -0.0866 C   0  0  0  0  0  0  0  0  0  0  0  0
   -1.1249    2.6246    0.6570 C   0  0  0  0  0  0  0  0  0  0  0  0
   -1.9539    3.5443    0.0082 C   0  0  0  0  0  0  0  0  0  0  0  0
   -1.9112    3.6657   -1.3832 C   0  0  0  0  0  0  0  0  0  0  0  0
   -1.0349    2.8717   -2.1277 C   0  0  0  0  0  0  0  0  0  0  0  0
   -0.2056    1.9487   -1.4835 C   0  0  0  0  0  0  0  0  0  0  0  0
  1  2  2  0
  2  3  1  0
  3  4  4  0
  4  5  4  0
  5  6  4  0
  6  7  4  0
  7  8  4  0
  8  3  4  0
M  END
$$$$

     RDKit          3D

  8  8  0  0  0  0  0  0  0  0999 V2000
    0.1201    0.2117    1.3910 C   0  0  0  0  0  0  0  0  0  0  0  0
    0.3788    1.0451    0.3581 C   0  0  0  0  0  0  0  0  0  0  0  0
   -0.7081    1.6498   -0.4562 C   0  0  0  0  0  0  0  0  0  0  0  0
   -1.7674    2.3444    0.1559 C   0  0  0  0  0  0  0  0  0  0  0  0
   -2.7902    2.8962   -0.6210 C   0  0  0  0  0  0  0  0  0  0  0  0
   -2.7571    2.7728   -2.0124 C   0  0  0  0  0  0  0  0  0  0  0  0
   -1.6978    2.1025   -2.6299 C   0  0  0  0  0  0  0  0  0  0  0  0
   -0.6738    1.5469   -1.8569 C   0  0  0  0  0  0  0  0  0  0  0  0
  1  2  2  0
  2  3  1  0
  3  4  4  0
  4  5  4  0
  5  6  4  0
  6  7  4  0
  7  8  4  0
  8  3  4  0
M  END
$$$$

     RDKit          3D

  8  8  0  0  0  0  0  0  0  0999 V2000
   -1.0241   -1.8065    0.1249 C   0  0  0  0  0  0  0  0  0  0  0  0
    0.2348   -1.7886    0.6156 C   0  0  0  0  0  0  0  0  0  0  0  0
    0.8533   -3.0466    1.1231 C   0  0  0  0  0  0  0  0  0  0  0  0
    1.7042   -3.0149    2.2458 C   0  0  0  0  0  0  0  0  0  0  0  0
    2.2965   -4.1887    2.7206 C   0  0  0  0  0  0  0  0  0  0  0  0
    2.0477   -5.4063    2.0845 C   0  0  0  0  0  0  0  0  0  0  0  0
    1.2163   -5.4505    0.9648 C   0  0  0  0  0  0  0  0  0  0  0  0
    0.6230   -4.2798    0.4822 C   0  0  0  0  0  0  0  0  0  0  0  0
  1  2  2  0
  2  3  1  0
  3  4  4  0
  4  5  4  0
  5  6  4  0
  6  7  4  0
  7  8  4  0
  8  3  4  0
M  END
$$$$

     RDKit          3D

  8  8  0  0  0  0  0  0  0  0999 V2000
    1.3260   -1.2608    0.7178 C   0  0  0  0  0  0  0  0  0  0  0  0
    0.0455   -1.6743    0.5921 C   0  0  0  0  0  0  0  0  0  0  0  0
   -0.3599   -2.9979    1.1411 C   0  0  0  0  0  0  0  0  0  0  0  0
    0.1291   -3.4468    2.3838 C   0  0  0  0  0  0  0  0  0  0  0  0
   -0.2711   -4.6841    2.8975 C   0  0  0  0  0  0  0  0  0  0  0  0
   -1.1644   -5.4844    2.1822 C   0  0  0  0  0  0  0  0  0  0  0  0
   -1.6617   -5.0482    0.9523 C   0  0  0  0  0  0  0  0  0  0  0  0
   -1.2651   -3.8121    0.4336 C   0  0  0  0  0  0  0  0  0  0  0  0
  1  2  2  0
  2  3  1  0
  3  4  4  0
  4  5  4  0
  5  6  4  0
  6  7  4  0
  7  8  4  0
  8  3  4  0
M  END
$$$$

     RDKit          3D

  8  8  0  0  0  0  0  0  0  0999 V2000
   -0.3351   -1.2685   -0.3173 C   0  0  0  0  0  0  0  0  0  0  0  0
    0.7138   -0.6522    0.2715 C   0  0  0  0  0  0  0  0  0  0  0  0
    0.5790    0.0630    1.5679 C   0  0  0  0  0  0  0  0  0  0  0  0
    1.4818   -0.2020    2.6115 C   0  0  0  0  0  0  0  0  0  0  0  0
    1.3743    0.4801    3.8271 C   0  0  0  0  0  0  0  0  0  0  0  0
    0.3725    1.4374    4.0072 C   0  0  0  0  0  0  0  0  0  0  0  0
   -0.5201    1.7190    2.9697 C   0  0  0  0  0  0  0  0  0  0  0  0
   -0.4153    1.0410    1.7518 C   0  0  0  0  0  0  0  0  0  0  0  0
  1  2  2  0
  2  3  1  0
  3  4  4  0
  4  5  4  0
  5  6  4  0
  6  7  4  0
  7  8  4  0
  8  3  4  0
M  END
$$$$

     RDKit          3D

  8  8  0  0  0  0  0  0  0  0999 V2000
    0.5178    0.6633   -1.1337 C   0  0  0  0  0  0  0  0  0  0  0  0
   -0.5876   -0.0734   -0.8878 C   0  0  0  0  0  0  0  0  0  0  0  0
   -0.5137   -1.5182   -0.5461 C   0  0  0  0  0  0  0  0  0  0  0  0
   -1.3232   -2.4414   -1.2299 C   0  0  0  0  0  0  0  0  0  0  0  0
   -1.2748   -3.7998   -0.9036 C   0  0  0  0  0  0  0  0  0  0  0  0
   -0.4280   -4.2458    0.1143 C   0  0  0  0  0  0  0  0  0  0  0  0
    0.3676   -3.3333    0.8119 C   0  0  0  0  0  0  0  0  0  0  0  0
    0.3222   -1.9737    0.4895 C   0  0  0  0  0  0  0  0  0  0  0  0
  1  2  2  0
  2  3  1  0
  3  4  4  0
  4  5  4  0
  5  6  4  0
  6  7  4  0
  7  8  4  0
  8  3  4  0
M  END
$$$$

     RDKit          3D

  8  8  0  0  0  0  0  0  0  0999 V2000
   -0.7591    0.7308    1.0089 C   0  0  0  0  0  0  0  0  0  0  0  0
    0.4390    0.1078    0.9543 C   0  0  0  0  0  0  0  0  0  0  0  0
    0.5549   -1.3528    0.7035 C   0  0  0  0  0  0  0  0  0  0  0  0
   -0.0784   -1.9466   -0.4035 C   0  0  0  0  0  0  0  0  0  0  0  0
    0.0513   -3.3187   -0.6371 C   0  0  0  0  0  0  0  0  0  0  0  0
    0.8227   -4.1056    0.2221 C   0  0  0  0  0  0  0  0  0  0  0  0
    1.4694   -3.5210    1.3141 C   0  0  0  0  0  0  0  0  0  0  0  0
    1.3412   -2.1494    1.5527 C   0  0  0  0  0  0  0  0  0  0  0  0
  1  2  2  0
  2  3  1  0
  3  4  4  0
  4  5  4  0
  5  6  4  0
  6  7  4  0
  7  8  4  0
  8  3  4  0
M  END
$$$$

     RDKit          3D

  8  8  0  0  0  0  0  0  0  0999 V2000
    0.1843    0.0311    0.0131 C   0  0  0  0  0  0  0  0  0  0  0  0
   -0.6351   -0.9400    0.4735 C   0  0  0  0  0  0  0  0  0  0  0  0
   -0.1801   -2.3470    0.6243 C   0  0  0  0  0  0  0  0  0  0  0  0
   -0.9429   -3.3925    0.0773 C   0  0  0  0  0  0  0  0  0  0  0  0
   -0.5286   -4.7196    0.2252 C   0  0  0  0  0  0  0  0  0  0  0  0
    0.6432   -5.0138    0.9274 C   0  0  0  0  0  0  0  0  0  0  0  0
    1.3999   -3.9817    1.4883 C   0  0  0  0  0  0  0  0  0  0  0  0
    0.9888   -2.6534    1.3444 C   0  0  0  0  0  0  0  0  0  0  0  0
  1  2  2  0
  2  3  1  0
  3  4  4  0
  4  5  4  0
  5  6  4  0
  6  7  4  0
  7  8  4  0
  8  3  4  0
M  END
$$$$

     RDKit          3D

  8  8  0  0  0  0  0  0  0  0999 V2000
   -0.1789    0.0392   -0.0441 C   0  0  0  0  0  0  0  0  0  0  0  0
    0.6726   -1.0097   -0.0779 C   0  0  0  0  0  0  0  0  0  0  0  0
    0.1904   -2.4105   -0.1986 C   0  0  0  0  0  0  0  0  0  0  0  0
   -0.6944   -2.7823   -1.2271 C   0  0  0  0  0  0  0  0  0  0  0  0
   -1.1317   -4.1055   -1.3362 C   0  0  0  0  0  0  0  0  0  0  0  0
   -0.6810   -5.0692   -0.4303 C   0  0  0  0  0  0  0  0  0  0  0  0
    0.2115   -4.7121    0.5839 C   0  0  0  0  0  0  0  0  0  0  0  0
    0.6505   -3.3896    0.6980 C   0  0  0  0  0  0  0  0  0  0  0  0
  1  2  2  0
  2  3  1  0
  3  4  4  0
  4  5  4  0
  5  6  4  0
  6  7  4  0
  7  8  4  0
  8  3  4  0
M  END
$$$$

     RDKit          3D

  8  8  0  0  0  0  0  0  0  0999 V2000
   -0.1760   -0.0705   -0.0289 C   0  0  0  0  0  0  0  0  0  0  0  0
    0.7298   -1.0725   -0.0718 C   0  0  0  0  0  0  0  0  0  0  0  0
    0.3355   -2.4970    0.0851 C   0  0  0  0  0  0  0  0  0  0  0  0
    1.0129   -3.3141    1.0058 C   0  0  0  0  0  0  0  0  0  0  0  0
    0.6570   -4.6583    1.1507 C   0  0  0  0  0  0  0  0  0  0  0  0
   -0.3695   -5.1993    0.3720 C   0  0  0  0  0  0  0  0  0  0  0  0
   -1.0381   -4.3985   -0.5576 C   0  0  0  0  0  0  0  0  0  0  0  0
   -0.6847   -3.0543   -0.7071 C   0  0  0  0  0  0  0  0  0  0  0  0
  1  2  2  0
  2  3  1  0
  3  4  4  0
  4  5  4  0
  5  6  4  0
  6  7  4  0
  7  8  4  0
  8  3  4  0
M  END
$$$$

     RDKit          3D

  8  8  0  0  0  0  0  0  0  0999 V2000
    0.1561    0.0490   -0.0604 C   0  0  0  0  0  0  0  0  0  0  0  0
   -0.6002   -1.0036   -0.4433 C   0  0  0  0  0  0  0  0  0  0  0  0
   -0.1208   -1.9955   -1.4411 C   0  0  0  0  0  0  0  0  0  0  0  0
   -0.9328   -2.3367   -2.5357 C   0  0  0  0  0  0  0  0  0  0  0  0
   -0.4950   -3.2781   -3.4721 C   0  0  0  0  0  0  0  0  0  0  0  0
    0.7505   -3.8927   -3.3181 C   0  0  0  0  0  0  0  0  0  0  0  0
    1.5581   -3.5716   -2.2240 C   0  0  0  0  0  0  0  0  0  0  0  0
    1.1239   -2.6321   -1.2844 C   0  0  0  0  0  0  0  0  0  0  0  0
  1  2  2  0
  2  3  1  0
  3  4  4  0
  4  5  4  0
  5  6  4  0
  6  7  4  0
  7  8  4  0
  8  3  4  0
M  END
$$$$

     RDKit          3D

  8  8  0  0  0  0  0  0  0  0999 V2000
    0.1936    0.0398    0.0080 C   0  0  0  0  0  0  0  0  0  0  0  0
   -0.6630    1.0834    0.0691 C   0  0  0  0  0  0  0  0  0  0  0  0
   -0.2089    2.4537    0.4232 C   0  0  0  0  0  0  0  0  0  0  0  0
   -0.8780    3.1765    1.4252 C   0  0  0  0  0  0  0  0  0  0  0  0
   -0.4652    4.4706    1.7560 C   0  0  0  0  0  0  0  0  0  0  0  0
    0.6109    5.0562    1.0838 C   0  0  0  0  0  0  0  0  0  0  0  0
    1.2724    4.3510    0.0751 C   0  0  0  0  0  0  0  0  0  0  0  0
    0.8623    3.0574   -0.2602 C   0  0  0  0  0  0  0  0  0  0  0  0
  1  2  2  0
  2  3  1  0
  3  4  4  0
  4  5  4  0
  5  6  4  0
  6  7  4  0
  7  8  4  0
  8  3  4  0
M  END
$$$$

     RDKit          3D

  8  8  0  0  0  0  0  0  0  0999 V2000
    0.1797   -0.0555    0.0374 C   0  0  0  0  0  0  0  0  0  0  0  0
   -0.6811   -0.9909    0.4961 C   0  0  0  0  0  0  0  0  0  0  0  0
   -0.2275   -2.3481    0.8979 C   0  0  0  0  0  0  0  0  0  0  0  0
    0.8268   -2.5142    1.8145 C   0  0  0  0  0  0  0  0  0  0  0  0
    1.2361   -3.7961    2.1929 C   0  0  0  0  0  0  0  0  0  0  0  0
    0.5903   -4.9201    1.6713 C   0  0  0  0  0  0  0  0  0  0  0  0
   -0.4693   -4.7640    0.7738 C   0  0  0  0  0  0  0  0  0  0  0  0
   -0.8812   -3.4839    0.3912 C   0  0  0  0  0  0  0  0  0  0  0  0
  1  2  2  0
  2  3  1  0
  3  4  4  0
  4  5  4  0
  5  6  4  0
  6  7  4  0
  7  8  4  0
  8  3  4  0
M  END
$$$$

     RDKit          3D

  8  8  0  0  0  0  0  0  0  0999 V2000
   -0.9577   -1.8744    0.3052 C   0  0  0  0  0  0  0  0  0  0  0  0
    0.2188   -1.6866    0.9407 C   0  0  0  0  0  0  0  0  0  0  0  0
    0.8043   -2.7791    1.7648 C   0  0  0  0  0  0  0  0  0  0  0  0
    0.7492   -4.1158    1.3368 C   0  0  0  0  0  0  0  0  0  0  0  0
    1.2923   -5.1355    2.1242 C   0  0  0  0  0  0  0  0  0  0  0  0
    1.9125   -4.8311    3.3371 C   0  0  0  0  0  0  0  0  0  0  0  0
    1.9900   -3.5056    3.7658 C   0  0  0  0  0  0  0  0  0  0  0  0
    1.4343   -2.4850    2.9905 C   0  0  0  0  0  0  0  0  0  0  0  0
  1  2  2  0
  2  3  1  0
  3  4  4  0
  4  5  4  0
  5  6  4  0
  6  7  4  0
  7  8  4  0
  8  3  4  0
M  END
$$$$

     RDKit          3D

  4  3  0  0  0  0  0  0  0  0999 V2000
   -1.0316   -1.2201   -1.6494 Cl  0  0  0  0  0  0  0  0  0  0  0  0
    0.1487   -0.5269   -0.5410 C   0  0  0  0  0  0  0  0  0  0  0  0
   -0.1487    0.5269    0.2366 C   0  0  0  0  0  0  0  0  0  0  0  0
    1.0316    1.2201    1.3449 Cl  0  0  0  0  0  0  0  0  0  0  0  0
  1  2  1  0
  2  3  2  0
  3  4  1  0
M  END
$$$$

     RDKit          3D

  4  3  0  0  0  0  0  0  0  0999 V2000
   -1.0316   -1.2201   -1.6494 Cl  0  0  0  0  0  0  0  0  0  0  0  0
    0.1487   -0.5269   -0.5410 C   0  0  0  0  0  0  0  0  0  0  0  0
   -0.1487    0.5269    0.2366 C   0  0  0  0  0  0  0  0  0  0  0  0
    1.0316    1.2201    1.3449 Cl  0  0  0  0  0  0  0  0  0  0  0  0
  1  2  1  0
  2  3  2  0
  3  4  1  0
M  END
$$$$

     RDKit          3D

  4  3  0  0  0  0  0  0  0  0999 V2000
   -0.8180    0.6240   -1.7653 Cl  0  0  0  0  0  0  0  0  0  0  0  0
    0.2390    0.1117   -0.4529 C   0  0  0  0  0  0  0  0  0  0  0  0
   -0.2333   -0.1206    0.7827 C   0  0  0  0  0  0  0  0  0  0  0  0
    0.8238   -0.6328    2.0951 Cl  0  0  0  0  0  0  0  0  0  0  0  0
  1  2  1  0
  2  3  2  0
  3  4  1  0
M  END
$$$$

     RDKit          3D

  4  3  0  0  0  0  0  0  0  0999 V2000
   -0.8180    0.6240   -1.7653 Cl  0  0  0  0  0  0  0  0  0  0  0  0
    0.2390    0.1117   -0.4529 C   0  0  0  0  0  0  0  0  0  0  0  0
   -0.2333   -0.1206    0.7827 C   0  0  0  0  0  0  0  0  0  0  0  0
    0.8238   -0.6328    2.0951 Cl  0  0  0  0  0  0  0  0  0  0  0  0
  1  2  1  0
  2  3  2  0
  3  4  1  0
M  END
$$$$

     RDKit          3D

  4  3  0  0  0  0  0  0  0  0999 V2000
    0.6795    2.0377    0.5452 Cl  0  0  0  0  0  0  0  0  0  0  0  0
    0.5606    0.3836   -0.0480 C   0  0  0  0  0  0  0  0  0  0  0  0
   -0.5448   -0.3552    0.1413 C   0  0  0  0  0  0  0  0  0  0  0  0
   -0.6637   -2.0093   -0.4519 Cl  0  0  0  0  0  0  0  0  0  0  0  0
  1  2  1  0
  2  3  2  0
  3  4  1  0
M  END
$$$$

     RDKit          3D

  4  3  0  0  0  0  0  0  0  0999 V2000
    0.6795    2.0377    0.5452 Cl  0  0  0  0  0  0  0  0  0  0  0  0
    0.5606    0.3836   -0.0480 C   0  0  0  0  0  0  0  0  0  0  0  0
   -0.5448   -0.3552    0.1413 C   0  0  0  0  0  0  0  0  0  0  0  0
   -0.6637   -2.0093   -0.4519 Cl  0  0  0  0  0  0  0  0  0  0  0  0
  1  2  1  0
  2  3  2  0
  3  4  1  0
M  END
$$$$

     RDKit          3D

  4  3  0  0  0  0  0  0  0  0999 V2000
    0.0341   -1.2136   -1.9769 Cl  0  0  0  0  0  0  0  0  0  0  0  0
    0.4452   -0.3850   -0.4780 C   0  0  0  0  0  0  0  0  0  0  0  0
   -0.4452    0.3850    0.1687 C   0  0  0  0  0  0  0  0  0  0  0  0
   -0.0341    1.2136    1.6675 Cl  0  0  0  0  0  0  0  0  0  0  0  0
  1  2  1  0
  2  3  2  0
  3  4  1  0
M  END
$$$$

     RDKit          3D

  4  3  0  0  0  0  0  0  0  0999 V2000
    0.0341   -1.2136   -1.9769 Cl  0  0  0  0  0  0  0  0  0  0  0  0
    0.4452   -0.3850   -0.4780 C   0  0  0  0  0  0  0  0  0  0  0  0
   -0.4452    0.3850    0.1687 C   0  0  0  0  0  0  0  0  0  0  0  0
   -0.0341    1.2136    1.6675 Cl  0  0  0  0  0  0  0  0  0  0  0  0
  1  2  1  0
  2  3  2  0
  3  4  1  0
M  END
$$$$

     RDKit          3D

  4  3  0  0  0  0  0  0  0  0999 V2000
    1.6984   -1.0192   -3.2121 Cl  0  0  0  0  0  0  0  0  0  0  0  0
    0.8724   -0.7352   -1.6859 C   0  0  0  0  0  0  0  0  0  0  0  0
    0.3448   -1.7498   -0.9790 C   0  0  0  0  0  0  0  0  0  0  0  0
    0.4549   -3.4108   -1.5459 Cl  0  0  0  0  0  0  0  0  0  0  0  0
  1  2  1  0
  2  3  2  0
  3  4  1  0
M  END
$$$$

     RDKit          3D

  4  3  0  0  0  0  0  0  0  0999 V2000
    1.6984   -1.0192   -3.2121 Cl  0  0  0  0  0  0  0  0  0  0  0  0
    0.8724   -0.7352   -1.6859 C   0  0  0  0  0  0  0  0  0  0  0  0
    0.3448   -1.7498   -0.9790 C   0  0  0  0  0  0  0  0  0  0  0  0
    0.4549   -3.4108   -1.5459 Cl  0  0  0  0  0  0  0  0  0  0  0  0
  1  2  1  0
  2  3  2  0
  3  4  1  0
M  END
$$$$

     RDKit          3D

  4  3  0  0  0  0  0  0  0  0999 V2000
    1.3633   -2.2238    2.6711 Cl  0  0  0  0  0  0  0  0  0  0  0  0
    0.5489   -1.2630    1.4437 C   0  0  0  0  0  0  0  0  0  0  0  0
   -0.7874   -1.3056    1.2972 C   0  0  0  0  0  0  0  0  0  0  0  0
   -1.7866   -2.3254    2.3249 Cl  0  0  0  0  0  0  0  0  0  0  0  0
  1  2  1  0
  2  3  2  0
  3  4  1  0
M  END
$$$$

     RDKit          3D

  4  3  0  0  0  0  0  0  0  0999 V2000
    1.3633   -2.2238    2.6711 Cl  0  0  0  0  0  0  0  0  0  0  0  0
    0.5489   -1.2630    1.4437 C   0  0  0  0  0  0  0  0  0  0  0  0
   -0.7874   -1.3056    1.2972 C   0  0  0  0  0  0  0  0  0  0  0  0
   -1.7866   -2.3254    2.3249 Cl  0  0  0  0  0  0  0  0  0  0  0  0
  1  2  1  0
  2  3  2  0
  3  4  1  0
M  END
$$$$

     RDKit          3D

  4  3  0  0  0  0  0  0  0  0999 V2000
    1.3968   -3.5017   -0.2785 Cl  0  0  0  0  0  0  0  0  0  0  0  0
    0.5675   -1.9547   -0.1710 C   0  0  0  0  0  0  0  0  0  0  0  0
   -0.7724   -1.8751   -0.2464 C   0  0  0  0  0  0  0  0  0  0  0  0
   -1.7614   -3.3139   -0.4561 Cl  0  0  0  0  0  0  0  0  0  0  0  0
  1  2  1  0
  2  3  2  0
  3  4  1  0
M  END
$$$$

     RDKit          3D

  4  3  0  0  0  0  0  0  0  0999 V2000
    1.3968   -3.5017   -0.2785 Cl  0  0  0  0  0  0  0  0  0  0  0  0
    0.5675   -1.9547   -0.1710 C   0  0  0  0  0  0  0  0  0  0  0  0
   -0.7724   -1.8751   -0.2464 C   0  0  0  0  0  0  0  0  0  0  0  0
   -1.7614   -3.3139   -0.4561 Cl  0  0  0  0  0  0  0  0  0  0  0  0
  1  2  1  0
  2  3  2  0
  3  4  1  0
M  END
$$$$
