
     RDKit          3D

  5  4  0  0  0  0  0  0  0  0999 V2000
   -3.8398    0.1926   -0.8083 C   0  0  0  0  0  0  0  0  0  0  0  0
   -2.3185    0.2415   -0.9153 C   0  0  0  0  0  0  0  0  0  0  0  0
   -1.6565   -0.4707    0.2709 C   0  0  0  0  0  0  0  0  0  0  0  0
   -0.1542   -0.3950    0.1792 C   0  0  0  0  0  0  0  0  0  0  0  0
    0.5056   -1.1326   -0.7285 C   0  0  0  0  0  0  0  0  0  0  0  0
  1  2  1  0
  2  3  1  0
  3  4  1  0
  4  5  2  0
M  END
$$$$

     RDKit          3D

  5  4  0  0  0  0  0  0  0  0999 V2000
   -3.8398    0.1926   -0.8083 C   0  0  0  0  0  0  0  0  0  0  0  0
   -2.3185    0.2415   -0.9153 C   0  0  0  0  0  0  0  0  0  0  0  0
   -1.6565   -0.4707    0.2709 C   0  0  0  0  0  0  0  0  0  0  0  0
   -0.1542   -0.3950    0.1792 C   0  0  0  0  0  0  0  0  0  0  0  0
    0.5056   -1.1326   -0.7285 C   0  0  0  0  0  0  0  0  0  0  0  0
  1  2  1  0
  2  3  1  0
  3  4  1  0
  4  5  2  0
M  END
$$$$

     RDKit          3D

  5  4  0  0  0  0  0  0  0  0999 V2000
   -3.8398    0.1926   -0.8083 C   0  0  0  0  0  0  0  0  0  0  0  0
   -2.3185    0.2415   -0.9153 C   0  0  0  0  0  0  0  0  0  0  0  0
   -1.6565   -0.4707    0.2709 C   0  0  0  0  0  0  0  0  0  0  0  0
   -0.1542   -0.3950    0.1792 C   0  0  0  0  0  0  0  0  0  0  0  0
    0.5056   -1.1326   -0.7285 C   0  0  0  0  0  0  0  0  0  0  0  0
  1  2  1  0
  2  3  1  0
  3  4  1  0
  4  5  2  0
M  END
$$$$

     RDKit          3D

  5  4  0  0  0  0  0  0  0  0999 V2000
   -3.8507    0.1961   -0.6488 C   0  0  0  0  0  0  0  0  0  0  0  0
   -2.3676   -0.1561   -0.7164 C   0  0  0  0  0  0  0  0  0  0  0  0
   -1.6393    0.2644    0.5663 C   0  0  0  0  0  0  0  0  0  0  0  0
   -0.1691   -0.0564    0.4850 C   0  0  0  0  0  0  0  0  0  0  0  0
    0.2511   -1.3287    0.5744 C   0  0  0  0  0  0  0  0  0  0  0  0
  1  2  1  0
  2  3  1  0
  3  4  1  0
  4  5  2  0
M  END
$$$$

     RDKit          3D

  5  4  0  0  0  0  0  0  0  0999 V2000
   -3.8507    0.1961   -0.6488 C   0  0  0  0  0  0  0  0  0  0  0  0
   -2.3676   -0.1561   -0.7164 C   0  0  0  0  0  0  0  0  0  0  0  0
   -1.6393    0.2644    0.5663 C   0  0  0  0  0  0  0  0  0  0  0  0
   -0.1691   -0.0564    0.4850 C   0  0  0  0  0  0  0  0  0  0  0  0
    0.2511   -1.3287    0.5744 C   0  0  0  0  0  0  0  0  0  0  0  0
  1  2  1  0
  2  3  1  0
  3  4  1  0
  4  5  2  0
M  END
$$$$

     RDKit          3D

  5  4  0  0  0  0  0  0  0  0999 V2000
   -3.8507    0.1961   -0.6488 C   0  0  0  0  0  0  0  0  0  0  0  0
   -2.3676   -0.1561   -0.7164 C   0  0  0  0  0  0  0  0  0  0  0  0
   -1.6393    0.2644    0.5663 C   0  0  0  0  0  0  0  0  0  0  0  0
   -0.1691   -0.0564    0.4850 C   0  0  0  0  0  0  0  0  0  0  0  0
    0.2511   -1.3287    0.5744 C   0  0  0  0  0  0  0  0  0  0  0  0
  1  2  1  0
  2  3  1  0
  3  4  1  0
  4  5  2  0
M  END
$$$$

     RDKit          3D

  5  4  0  0  0  0  0  0  0  0999 V2000
   -3.4469   -1.6411   -0.9192 C   0  0  0  0  0  0  0  0  0  0  0  0
   -2.0062   -1.4189   -0.4683 C   0  0  0  0  0  0  0  0  0  0  0  0
   -1.5087   -0.0248   -0.8701 C   0  0  0  0  0  0  0  0  0  0  0  0
   -0.0962    0.2040   -0.3974 C   0  0  0  0  0  0  0  0  0  0  0  0
    0.9284   -0.4183   -1.0027 C   0  0  0  0  0  0  0  0  0  0  0  0
  1  2  1  0
  2  3  1  0
  3  4  1  0
  4  5  2  0
M  END
$$$$

     RDKit          3D

  5  4  0  0  0  0  0  0  0  0999 V2000
   -3.4469   -1.6411   -0.9192 C   0  0  0  0  0  0  0  0  0  0  0  0
   -2.0062   -1.4189   -0.4683 C   0  0  0  0  0  0  0  0  0  0  0  0
   -1.5087   -0.0248   -0.8701 C   0  0  0  0  0  0  0  0  0  0  0  0
   -0.0962    0.2040   -0.3974 C   0  0  0  0  0  0  0  0  0  0  0  0
    0.9284   -0.4183   -1.0027 C   0  0  0  0  0  0  0  0  0  0  0  0
  1  2  1  0
  2  3  1  0
  3  4  1  0
  4  5  2  0
M  END
$$$$

     RDKit          3D

  5  4  0  0  0  0  0  0  0  0999 V2000
   -3.4469   -1.6411   -0.9192 C   0  0  0  0  0  0  0  0  0  0  0  0
   -2.0062   -1.4189   -0.4683 C   0  0  0  0  0  0  0  0  0  0  0  0
   -1.5087   -0.0248   -0.8701 C   0  0  0  0  0  0  0  0  0  0  0  0
   -0.0962    0.2040   -0.3974 C   0  0  0  0  0  0  0  0  0  0  0  0
    0.9284   -0.4183   -1.0027 C   0  0  0  0  0  0  0  0  0  0  0  0
  1  2  1  0
  2  3  1  0
  3  4  1  0
  4  5  2  0
M  END
$$$$

     RDKit          3D

  5  4  0  0  0  0  0  0  0  0999 V2000
   -3.0957   -1.9482   -1.4065 C   0  0  0  0  0  0  0  0  0  0  0  0
   -1.7219   -1.3039   -1.2458 C   0  0  0  0  0  0  0  0  0  0  0  0
   -1.4598   -0.9147    0.2145 C   0  0  0  0  0  0  0  0  0  0  0  0
   -0.1139   -0.2539    0.3659 C   0  0  0  0  0  0  0  0  0  0  0  0
    1.0103   -0.9836    0.2840 C   0  0  0  0  0  0  0  0  0  0  0  0
  1  2  1  0
  2  3  1  0
  3  4  1  0
  4  5  2  0
M  END
$$$$

     RDKit          3D

  5  4  0  0  0  0  0  0  0  0999 V2000
   -3.0957   -1.9482   -1.4065 C   0  0  0  0  0  0  0  0  0  0  0  0
   -1.7219   -1.3039   -1.2458 C   0  0  0  0  0  0  0  0  0  0  0  0
   -1.4598   -0.9147    0.2145 C   0  0  0  0  0  0  0  0  0  0  0  0
   -0.1139   -0.2539    0.3659 C   0  0  0  0  0  0  0  0  0  0  0  0
    1.0103   -0.9836    0.2840 C   0  0  0  0  0  0  0  0  0  0  0  0
  1  2  1  0
  2  3  1  0
  3  4  1  0
  4  5  2  0
M  END
$$$$

     RDKit          3D

  5  4  0  0  0  0  0  0  0  0999 V2000
   -3.0957   -1.9482   -1.4065 C   0  0  0  0  0  0  0  0  0  0  0  0
   -1.7219   -1.3039   -1.2458 C   0  0  0  0  0  0  0  0  0  0  0  0
   -1.4598   -0.9147    0.2145 C   0  0  0  0  0  0  0  0  0  0  0  0
   -0.1139   -0.2539    0.3659 C   0  0  0  0  0  0  0  0  0  0  0  0
    1.0103   -0.9836    0.2840 C   0  0  0  0  0  0  0  0  0  0  0  0
  1  2  1  0
  2  3  1  0
  3  4  1  0
  4  5  2  0
M  END
$$$$

     RDKit          3D

  5  4  0  0  0  0  0  0  0  0999 V2000
   -3.1290    0.1539    2.3543 C   0  0  0  0  0  0  0  0  0  0  0  0
   -1.7155   -0.0306    1.8102 C   0  0  0  0  0  0  0  0  0  0  0  0
   -1.7119   -0.0594    0.2766 C   0  0  0  0  0  0  0  0  0  0  0  0
   -0.3119   -0.2125   -0.2601 C   0  0  0  0  0  0  0  0  0  0  0  0
    0.3248   -1.3908   -0.1610 C   0  0  0  0  0  0  0  0  0  0  0  0
  1  2  1  0
  2  3  1  0
  3  4  1  0
  4  5  2  0
M  END
$$$$

     RDKit          3D

  5  4  0  0  0  0  0  0  0  0999 V2000
   -3.1290    0.1539    2.3543 C   0  0  0  0  0  0  0  0  0  0  0  0
   -1.7155   -0.0306    1.8102 C   0  0  0  0  0  0  0  0  0  0  0  0
   -1.7119   -0.0594    0.2766 C   0  0  0  0  0  0  0  0  0  0  0  0
   -0.3119   -0.2125   -0.2601 C   0  0  0  0  0  0  0  0  0  0  0  0
    0.3248   -1.3908   -0.1610 C   0  0  0  0  0  0  0  0  0  0  0  0
  1  2  1  0
  2  3  1  0
  3  4  1  0
  4  5  2  0
M  END
$$$$

     RDKit          3D

  5  4  0  0  0  0  0  0  0  0999 V2000
   -3.1290    0.1539    2.3543 C   0  0  0  0  0  0  0  0  0  0  0  0
   -1.7155   -0.0306    1.8102 C   0  0  0  0  0  0  0  0  0  0  0  0
   -1.7119   -0.0594    0.2766 C   0  0  0  0  0  0  0  0  0  0  0  0
   -0.3119   -0.2125   -0.2601 C   0  0  0  0  0  0  0  0  0  0  0  0
    0.3248   -1.3908   -0.1610 C   0  0  0  0  0  0  0  0  0  0  0  0
  1  2  1  0
  2  3  1  0
  3  4  1  0
  4  5  2  0
M  END
$$$$

     RDKit          3D

  5  4  0  0  0  0  0  0  0  0999 V2000
   -1.5936   -1.3135    2.0878 C   0  0  0  0  0  0  0  0  0  0  0  0
   -0.9062   -0.2112    1.2879 C   0  0  0  0  0  0  0  0  0  0  0  0
   -0.6080   -0.6708   -0.1449 C   0  0  0  0  0  0  0  0  0  0  0  0
    0.0718    0.4224   -0.9372 C   0  0  0  0  0  0  0  0  0  0  0  0
    1.3768    0.7108   -0.8089 C   0  0  0  0  0  0  0  0  0  0  0  0
  1  2  1  0
  2  3  1  0
  3  4  1  0
  4  5  2  0
M  END
$$$$

     RDKit          3D

  5  4  0  0  0  0  0  0  0  0999 V2000
   -1.5936   -1.3135    2.0878 C   0  0  0  0  0  0  0  0  0  0  0  0
   -0.9062   -0.2112    1.2879 C   0  0  0  0  0  0  0  0  0  0  0  0
   -0.6080   -0.6708   -0.1449 C   0  0  0  0  0  0  0  0  0  0  0  0
    0.0718    0.4224   -0.9372 C   0  0  0  0  0  0  0  0  0  0  0  0
    1.3768    0.7108   -0.8089 C   0  0  0  0  0  0  0  0  0  0  0  0
  1  2  1  0
  2  3  1  0
  3  4  1  0
  4  5  2  0
M  END
$$$$

     RDKit          3D

  5  4  0  0  0  0  0  0  0  0999 V2000
   -1.5936   -1.3135    2.0878 C   0  0  0  0  0  0  0  0  0  0  0  0
   -0.9062   -0.2112    1.2879 C   0  0  0  0  0  0  0  0  0  0  0  0
   -0.6080   -0.6708   -0.1449 C   0  0  0  0  0  0  0  0  0  0  0  0
    0.0718    0.4224   -0.9372 C   0  0  0  0  0  0  0  0  0  0  0  0
    1.3768    0.7108   -0.8089 C   0  0  0  0  0  0  0  0  0  0  0  0
  1  2  1  0
  2  3  1  0
  3  4  1  0
  4  5  2  0
M  END
$$$$

     RDKit          3D

  5  4  0  0  0  0  0  0  0  0999 V2000
   -1.8618   -2.1228    0.7747 C   0  0  0  0  0  0  0  0  0  0  0  0
   -1.1559   -0.7704    0.7526 C   0  0  0  0  0  0  0  0  0  0  0  0
   -0.4420   -0.5405   -0.5855 C   0  0  0  0  0  0  0  0  0  0  0  0
    0.2560    0.8002   -0.6072 C   0  0  0  0  0  0  0  0  0  0  0  0
    1.4313    1.0193    0.0039 C   0  0  0  0  0  0  0  0  0  0  0  0
  1  2  1  0
  2  3  1  0
  3  4  1  0
  4  5  2  0
M  END
$$$$

     RDKit          3D

  5  4  0  0  0  0  0  0  0  0999 V2000
   -1.8618   -2.1228    0.7747 C   0  0  0  0  0  0  0  0  0  0  0  0
   -1.1559   -0.7704    0.7526 C   0  0  0  0  0  0  0  0  0  0  0  0
   -0.4420   -0.5405   -0.5855 C   0  0  0  0  0  0  0  0  0  0  0  0
    0.2560    0.8002   -0.6072 C   0  0  0  0  0  0  0  0  0  0  0  0
    1.4313    1.0193    0.0039 C   0  0  0  0  0  0  0  0  0  0  0  0
  1  2  1  0
  2  3  1  0
  3  4  1  0
  4  5  2  0
M  END
$$$$

     RDKit          3D

  5  4  0  0  0  0  0  0  0  0999 V2000
   -1.8618   -2.1228    0.7747 C   0  0  0  0  0  0  0  0  0  0  0  0
   -1.1559   -0.7704    0.7526 C   0  0  0  0  0  0  0  0  0  0  0  0
   -0.4420   -0.5405   -0.5855 C   0  0  0  0  0  0  0  0  0  0  0  0
    0.2560    0.8002   -0.6072 C   0  0  0  0  0  0  0  0  0  0  0  0
    1.4313    1.0193    0.0039 C   0  0  0  0  0  0  0  0  0  0  0  0
  1  2  1  0
  2  3  1  0
  3  4  1  0
  4  5  2  0
M  END
$$$$

     RDKit          3D

  5  4  0  0  0  0  0  0  0  0999 V2000
   -2.6138   -1.1515    0.6786 C   0  0  0  0  0  0  0  0  0  0  0  0
   -1.2921   -0.4003    0.8067 C   0  0  0  0  0  0  0  0  0  0  0  0
   -0.7603    0.0227   -0.5685 C   0  0  0  0  0  0  0  0  0  0  0  0
    0.5483    0.7686   -0.4405 C   0  0  0  0  0  0  0  0  0  0  0  0
    1.7213    0.1503   -0.2300 C   0  0  0  0  0  0  0  0  0  0  0  0
  1  2  1  0
  2  3  1  0
  3  4  1  0
  4  5  2  0
M  END
$$$$

     RDKit          3D

  5  4  0  0  0  0  0  0  0  0999 V2000
   -2.6138   -1.1515    0.6786 C   0  0  0  0  0  0  0  0  0  0  0  0
   -1.2921   -0.4003    0.8067 C   0  0  0  0  0  0  0  0  0  0  0  0
   -0.7603    0.0227   -0.5685 C   0  0  0  0  0  0  0  0  0  0  0  0
    0.5483    0.7686   -0.4405 C   0  0  0  0  0  0  0  0  0  0  0  0
    1.7213    0.1503   -0.2300 C   0  0  0  0  0  0  0  0  0  0  0  0
  1  2  1  0
  2  3  1  0
  3  4  1  0
  4  5  2  0
M  END
$$$$

     RDKit          3D

  5  4  0  0  0  0  0  0  0  0999 V2000
   -2.6138   -1.1515    0.6786 C   0  0  0  0  0  0  0  0  0  0  0  0
   -1.2921   -0.4003    0.8067 C   0  0  0  0  0  0  0  0  0  0  0  0
   -0.7603    0.0227   -0.5685 C   0  0  0  0  0  0  0  0  0  0  0  0
    0.5483    0.7686   -0.4405 C   0  0  0  0  0  0  0  0  0  0  0  0
    1.7213    0.1503   -0.2300 C   0  0  0  0  0  0  0  0  0  0  0  0
  1  2  1  0
  2  3  1  0
  3  4  1  0
  4  5  2  0
M  END
$$$$

     RDKit          3D

  5  4  0  0  0  0  0  0  0  0999 V2000
   -1.7989   -1.4796    1.7893 C   0  0  0  0  0  0  0  0  0  0  0  0
   -0.9961   -1.1122    0.5450 C   0  0  0  0  0  0  0  0  0  0  0  0
   -0.6373    0.3792    0.5383 C   0  0  0  0  0  0  0  0  0  0  0  0
    0.1563    0.7429   -0.6958 C   0  0  0  0  0  0  0  0  0  0  0  0
    1.4659    0.4760   -0.8242 C   0  0  0  0  0  0  0  0  0  0  0  0
  1  2  1  0
  2  3  1  0
  3  4  1  0
  4  5  2  0
M  END
$$$$

     RDKit          3D

  5  4  0  0  0  0  0  0  0  0999 V2000
   -1.7989   -1.4796    1.7893 C   0  0  0  0  0  0  0  0  0  0  0  0
   -0.9961   -1.1122    0.5450 C   0  0  0  0  0  0  0  0  0  0  0  0
   -0.6373    0.3792    0.5383 C   0  0  0  0  0  0  0  0  0  0  0  0
    0.1563    0.7429   -0.6958 C   0  0  0  0  0  0  0  0  0  0  0  0
    1.4659    0.4760   -0.8242 C   0  0  0  0  0  0  0  0  0  0  0  0
  1  2  1  0
  2  3  1  0
  3  4  1  0
  4  5  2  0
M  END
$$$$

     RDKit          3D

  5  4  0  0  0  0  0  0  0  0999 V2000
   -1.7989   -1.4796    1.7893 C   0  0  0  0  0  0  0  0  0  0  0  0
   -0.9961   -1.1122    0.5450 C   0  0  0  0  0  0  0  0  0  0  0  0
   -0.6373    0.3792    0.5383 C   0  0  0  0  0  0  0  0  0  0  0  0
    0.1563    0.7429   -0.6958 C   0  0  0  0  0  0  0  0  0  0  0  0
    1.4659    0.4760   -0.8242 C   0  0  0  0  0  0  0  0  0  0  0  0
  1  2  1  0
  2  3  1  0
  3  4  1  0
  4  5  2  0
M  END
$$$$

     RDKit          3D

  6  6  0  0  0  0  0  0  0  0999 V2000
   -1.6650   -0.4076   -0.5830 N   0  0  0  0  0  0  0  0  0  0  0  0
   -0.3596   -0.6437   -0.6937 N   0  0  0  0  0  0  0  0  0  0  0  0
    0.5444    0.3154   -0.3772 C   0  0  0  0  0  0  0  0  0  0  0  0
    0.0947    1.5238    0.0447 N   0  0  0  0  0  0  0  0  0  0  0  0
   -1.2121    1.7616    0.1458 N   0  0  0  0  0  0  0  0  0  0  0  0
   -2.1200    0.7958   -0.1476 C   0  0  0  0  0  0  0  0  0  0  0  0
  1  2  4  0
  2  3  4  0
  3  4  4  0
  4  5  4  0
  5  6  4  0
  6  1  4  0
M  END
$$$$

     RDKit          3D

  6  6  0  0  0  0  0  0  0  0999 V2000
    1.5453   -0.2319    1.0168 N   0  0  0  0  0  0  0  0  0  0  0  0
    0.2165   -0.1464    1.0408 N   0  0  0  0  0  0  0  0  0  0  0  0
   -0.5039   -0.3371   -0.0921 C   0  0  0  0  0  0  0  0  0  0  0  0
    0.1483   -0.6414   -1.2405 N   0  0  0  0  0  0  0  0  0  0  0  0
    1.4761   -0.7340   -1.2591 N   0  0  0  0  0  0  0  0  0  0  0  0
    2.2053   -0.5111   -0.1382 C   0  0  0  0  0  0  0  0  0  0  0  0
  1  2  4  0
  2  3  4  0
  3  4  4  0
  4  5  4  0
  5  6  4  0
  6  1  4  0
M  END
$$$$

     RDKit          3D

  6  6  0  0  0  0  0  0  0  0999 V2000
    1.7059    0.5268    0.9365 N   0  0  0  0  0  0  0  0  0  0  0  0
    0.3882    0.4626    1.1168 N   0  0  0  0  0  0  0  0  0  0  0  0
   -0.4104   -0.0696    0.1579 C   0  0  0  0  0  0  0  0  0  0  0  0
    0.1547   -0.5346   -0.9835 N   0  0  0  0  0  0  0  0  0  0  0  0
    1.4737   -0.4769   -1.1561 N   0  0  0  0  0  0  0  0  0  0  0  0
    2.2813    0.0657   -0.2082 C   0  0  0  0  0  0  0  0  0  0  0  0
  1  2  4  0
  2  3  4  0
  3  4  4  0
  4  5  4  0
  5  6  4  0
  6  1  4  0
M  END
$$$$

     RDKit          3D

  6  6  0  0  0  0  0  0  0  0999 V2000
    1.5491    0.3442   -0.8673 N   0  0  0  0  0  0  0  0  0  0  0  0
    0.2181    0.3027   -0.8616 N   0  0  0  0  0  0  0  0  0  0  0  0
   -0.4458   -0.2891    0.1613 C   0  0  0  0  0  0  0  0  0  0  0  0
    0.2671   -0.8476    1.1693 N   0  0  0  0  0  0  0  0  0  0  0  0
    1.5981   -0.8074    1.1562 N   0  0  0  0  0  0  0  0  0  0  0  0
    2.2753   -0.2075    0.1437 C   0  0  0  0  0  0  0  0  0  0  0  0
  1  2  4  0
  2  3  4  0
  3  4  4  0
  4  5  4  0
  5  6  4  0
  6  1  4  0
M  END
$$$$

     RDKit          3D

  6  6  0  0  0  0  0  0  0  0999 V2000
    1.4247   -1.2663   -0.4326 N   0  0  0  0  0  0  0  0  0  0  0  0
    0.0987   -1.1575   -0.4817 N   0  0  0  0  0  0  0  0  0  0  0  0
   -0.5465   -0.2634    0.3067 C   0  0  0  0  0  0  0  0  0  0  0  0
    0.1828    0.5155    1.1437 N   0  0  0  0  0  0  0  0  0  0  0  0
    1.5096    0.4118    1.1807 N   0  0  0  0  0  0  0  0  0  0  0  0
    2.1660   -0.4765    0.3870 C   0  0  0  0  0  0  0  0  0  0  0  0
  1  2  4  0
  2  3  4  0
  3  4  4  0
  4  5  4  0
  5  6  4  0
  6  1  4  0
M  END
$$$$

     RDKit          3D

  6  6  0  0  0  0  0  0  0  0999 V2000
   -1.6552    0.5766    0.2949 N   0  0  0  0  0  0  0  0  0  0  0  0
   -0.3532    0.7869    0.4797 N   0  0  0  0  0  0  0  0  0  0  0  0
    0.5642   -0.0364   -0.0844 C   0  0  0  0  0  0  0  0  0  0  0  0
    0.1351   -1.0781   -0.8400 N   0  0  0  0  0  0  0  0  0  0  0  0
   -1.1671   -1.2860   -1.0262 N   0  0  0  0  0  0  0  0  0  0  0  0
   -2.0892   -0.4708   -0.4537 C   0  0  0  0  0  0  0  0  0  0  0  0
  1  2  4  0
  2  3  4  0
  3  4  4  0
  4  5  4  0
  5  6  4  0
  6  1  4  0
M  END
$$$$

     RDKit          3D

  6  6  0  0  0  0  0  0  0  0999 V2000
    1.5830    0.5510   -1.2654 N   0  0  0  0  0  0  0  0  0  0  0  0
    0.2597    0.6893   -1.2169 N   0  0  0  0  0  0  0  0  0  0  0  0
   -0.4813   -0.0781   -0.3799 C   0  0  0  0  0  0  0  0  0  0  0  0
    0.1452   -1.0091    0.3809 N   0  0  0  0  0  0  0  0  0  0  0  0
    1.4679   -1.1493    0.3237 N   0  0  0  0  0  0  0  0  0  0  0  0
    2.2234   -0.3641   -0.4868 C   0  0  0  0  0  0  0  0  0  0  0  0
  1  2  4  0
  2  3  4  0
  3  4  4  0
  4  5  4  0
  5  6  4  0
  6  1  4  0
M  END
$$$$

     RDKit          3D

  6  6  0  0  0  0  0  0  0  0999 V2000
    1.6784    0.5474    0.9785 N   0  0  0  0  0  0  0  0  0  0  0  0
    0.3514    0.4890    1.0796 N   0  0  0  0  0  0  0  0  0  0  0  0
   -0.4022    0.0689    0.0334 C   0  0  0  0  0  0  0  0  0  0  0  0
    0.2198   -0.2940   -1.1155 N   0  0  0  0  0  0  0  0  0  0  0  0
    1.5464   -0.2441   -1.2119 N   0  0  0  0  0  0  0  0  0  0  0  0
    2.3021    0.1937   -0.1752 C   0  0  0  0  0  0  0  0  0  0  0  0
  1  2  4  0
  2  3  4  0
  3  4  4  0
  4  5  4  0
  5  6  4  0
  6  1  4  0
M  END
$$$$

     RDKit          3D

  6  6  0  0  0  0  0  0  0  0999 V2000
    1.6795   -0.0783   -0.6654 N   0  0  0  0  0  0  0  0  0  0  0  0
    0.3747   -0.1155   -0.9272 N   0  0  0  0  0  0  0  0  0  0  0  0
   -0.5273   -0.2097    0.0802 C   0  0  0  0  0  0  0  0  0  0  0  0
   -0.0775   -0.2725    1.3578 N   0  0  0  0  0  0  0  0  0  0  0  0
    1.2285   -0.2453    1.6173 N   0  0  0  0  0  0  0  0  0  0  0  0
    2.1353   -0.1339    0.6140 C   0  0  0  0  0  0  0  0  0  0  0  0
  1  2  4  0
  2  3  4  0
  3  4  4  0
  4  5  4  0
  5  6  4  0
  6  1  4  0
M  END
$$$$

     RDKit          3D

  6  6  0  0  0  0  0  0  0  0999 V2000
   -1.3332   -0.5216   -1.3726 N   0  0  0  0  0  0  0  0  0  0  0  0
   -0.0138   -0.4068   -1.2320 N   0  0  0  0  0  0  0  0  0  0  0  0
    0.5214   -0.0297   -0.0441 C   0  0  0  0  0  0  0  0  0  0  0  0
   -0.3072    0.2417    0.9933 N   0  0  0  0  0  0  0  0  0  0  0  0
   -1.6264    0.1250    0.8533 N   0  0  0  0  0  0  0  0  0  0  0  0
   -2.1625   -0.2771   -0.3270 C   0  0  0  0  0  0  0  0  0  0  0  0
  1  2  4  0
  2  3  4  0
  3  4  4  0
  4  5  4  0
  5  6  4  0
  6  1  4  0
M  END
$$$$

     RDKit          3D

  6  6  0  0  0  0  0  0  0  0999 V2000
    1.5335    0.5844   -1.3580 N   0  0  0  0  0  0  0  0  0  0  0  0
    0.2052    0.6566   -1.4210 N   0  0  0  0  0  0  0  0  0  0  0  0
   -0.5590    0.1217   -0.4377 C   0  0  0  0  0  0  0  0  0  0  0  0
    0.0504   -0.5099    0.5958 N   0  0  0  0  0  0  0  0  0  0  0  0
    1.3788   -0.5717    0.6609 N   0  0  0  0  0  0  0  0  0  0  0  0
    2.1534   -0.0120   -0.3070 C   0  0  0  0  0  0  0  0  0  0  0  0
  1  2  4  0
  2  3  4  0
  3  4  4  0
  4  5  4  0
  5  6  4  0
  6  1  4  0
M  END
$$$$

     RDKit          3D

  6  6  0  0  0  0  0  0  0  0999 V2000
    1.5479    0.7996    0.7322 N   0  0  0  0  0  0  0  0  0  0  0  0
    0.2172    0.7933    0.7832 N   0  0  0  0  0  0  0  0  0  0  0  0
   -0.5015    0.0670   -0.1079 C   0  0  0  0  0  0  0  0  0  0  0  0
    0.1594   -0.6573   -1.0439 N   0  0  0  0  0  0  0  0  0  0  0  0
    1.4901   -0.6517   -1.0875 N   0  0  0  0  0  0  0  0  0  0  0  0
    2.2211    0.0800   -0.2071 C   0  0  0  0  0  0  0  0  0  0  0  0
  1  2  4  0
  2  3  4  0
  3  4  4  0
  4  5  4  0
  5  6  4  0
  6  1  4  0
M  END
$$$$

     RDKit          3D

  6  6  0  0  0  0  0  0  0  0999 V2000
    1.6687   -0.4364    0.0615 N   0  0  0  0  0  0  0  0  0  0  0  0
    0.4605   -0.9133   -0.2371 N   0  0  0  0  0  0  0  0  0  0  0  0
   -0.6444   -0.1447   -0.0753 C   0  0  0  0  0  0  0  0  0  0  0  0
   -0.5002    1.1231    0.3858 N   0  0  0  0  0  0  0  0  0  0  0  0
    0.7072    1.6024    0.6757 N   0  0  0  0  0  0  0  0  0  0  0  0
    1.8142    0.8270    0.5373 C   0  0  0  0  0  0  0  0  0  0  0  0
  1  2  4  0
  2  3  4  0
  3  4  4  0
  4  5  4  0
  5  6  4  0
  6  1  4  0
M  END
$$$$

     RDKit          3D

  6  6  0  0  0  0  0  0  0  0999 V2000
    1.7882    0.7335    0.7081 N   0  0  0  0  0  0  0  0  0  0  0  0
    0.4700    0.9114    0.6489 N   0  0  0  0  0  0  0  0  0  0  0  0
   -0.3407   -0.0848    0.2096 C   0  0  0  0  0  0  0  0  0  0  0  0
    0.2138   -1.2698   -0.1498 N   0  0  0  0  0  0  0  0  0  0  0  0
    1.5316   -1.4492   -0.0790 N   0  0  0  0  0  0  0  0  0  0  0  0
    2.3489   -0.4461    0.3320 C   0  0  0  0  0  0  0  0  0  0  0  0
  1  2  4  0
  2  3  4  0
  3  4  4  0
  4  5  4  0
  5  6  4  0
  6  1  4  0
M  END
$$$$

     RDKit          3D

  6  6  0  0  0  0  0  0  0  0999 V2000
    1.4610   -0.8534    1.4711 N   0  0  0  0  0  0  0  0  0  0  0  0
    0.1479   -0.6835    1.3266 N   0  0  0  0  0  0  0  0  0  0  0  0
   -0.3657   -0.2204    0.1592 C   0  0  0  0  0  0  0  0  0  0  0  0
    0.4852    0.0578   -0.8607 N   0  0  0  0  0  0  0  0  0  0  0  0
    1.7983   -0.1086   -0.7145 N   0  0  0  0  0  0  0  0  0  0  0  0
    2.3151   -0.5554    0.4599 C   0  0  0  0  0  0  0  0  0  0  0  0
  1  2  4  0
  2  3  4  0
  3  4  4  0
  4  5  4  0
  5  6  4  0
  6  1  4  0
M  END
$$$$

     RDKit          3D

  6  6  0  0  0  0  0  0  0  0999 V2000
    1.8609   -0.0508    0.8384 N   0  0  0  0  0  0  0  0  0  0  0  0
    0.5771   -0.2637    1.1255 N   0  0  0  0  0  0  0  0  0  0  0  0
   -0.3726   -0.1511    0.1636 C   0  0  0  0  0  0  0  0  0  0  0  0
    0.0145    0.1467   -1.1026 N   0  0  0  0  0  0  0  0  0  0  0  0
    1.2983    0.3516   -1.3888 N   0  0  0  0  0  0  0  0  0  0  0  0
    2.2490    0.2790   -0.4227 C   0  0  0  0  0  0  0  0  0  0  0  0
  1  2  4  0
  2  3  4  0
  3  4  4  0
  4  5  4  0
  5  6  4  0
  6  1  4  0
M  END
$$$$

     RDKit          3D

  6  6  0  0  0  0  0  0  0  0999 V2000
    1.4252   -1.6230   -0.2821 N   0  0  0  0  0  0  0  0  0  0  0  0
    0.1495   -1.3240   -0.5190 N   0  0  0  0  0  0  0  0  0  0  0  0
   -0.2623   -0.0321   -0.5517 C   0  0  0  0  0  0  0  0  0  0  0  0
    0.6556    0.9519   -0.3687 N   0  0  0  0  0  0  0  0  0  0  0  0
    1.9307    0.6517   -0.1267 N   0  0  0  0  0  0  0  0  0  0  0  0
    2.3373   -0.6438   -0.0550 C   0  0  0  0  0  0  0  0  0  0  0  0
  1  2  4  0
  2  3  4  0
  3  4  4  0
  4  5  4  0
  5  6  4  0
  6  1  4  0
M  END
$$$$
