
     RDKit          3D

  6  6  0  0  0  0  0  0  0  0999 V2000
   -1.3887    1.6395    1.1879 N   0  0  0  0  0  0  0  0  0  0  0  0
   -0.0573    1.6542    1.1460 N   0  0  0  0  0  0  0  0  0  0  0  0
    0.6140    0.9448    0.2023 C   0  0  0  0  0  0  0  0  0  0  0  0
   -0.1004    0.2498   -0.7179 N   0  0  0  0  0  0  0  0  0  0  0  0
   -1.4314    0.2349   -0.6761 N   0  0  0  0  0  0  0  0  0  0  0  0
   -2.1025    0.9152    0.2875 C   0  0  0  0  0  0  0  0  0  0  0  0
  1  2  4  0
  2  3  4  0
  3  4  4  0
  4  5  4  0
  5  6  4  0
  6  1  4  0
M  END
$$$$

     RDKit          3D

  6  6  0  0  0  0  0  0  0  0999 V2000
   -1.3887    1.6395    1.1879 N   0  0  0  0  0  0  0  0  0  0  0  0
   -0.0573    1.6542    1.1460 N   0  0  0  0  0  0  0  0  0  0  0  0
    0.6140    0.9448    0.2023 C   0  0  0  0  0  0  0  0  0  0  0  0
   -0.1004    0.2498   -0.7179 N   0  0  0  0  0  0  0  0  0  0  0  0
   -1.4314    0.2349   -0.6761 N   0  0  0  0  0  0  0  0  0  0  0  0
   -2.1025    0.9152    0.2875 C   0  0  0  0  0  0  0  0  0  0  0  0
  1  2  4  0
  2  3  4  0
  3  4  4  0
  4  5  4  0
  5  6  4  0
  6  1  4  0
M  END
$$$$

     RDKit          3D

  6  6  0  0  0  0  0  0  0  0999 V2000
    1.6857    0.6465   -0.5103 N   0  0  0  0  0  0  0  0  0  0  0  0
    0.3990    0.9745   -0.6145 N   0  0  0  0  0  0  0  0  0  0  0  0
   -0.5371    0.3590    0.1528 C   0  0  0  0  0  0  0  0  0  0  0  0
   -0.1317   -0.5822    1.0420 N   0  0  0  0  0  0  0  0  0  0  0  0
    1.1550   -0.9104    1.1463 N   0  0  0  0  0  0  0  0  0  0  0  0
    2.0915   -0.2959    0.3783 C   0  0  0  0  0  0  0  0  0  0  0  0
  1  2  4  0
  2  3  4  0
  3  4  4  0
  4  5  4  0
  5  6  4  0
  6  1  4  0
M  END
$$$$

     RDKit          3D

  6  6  0  0  0  0  0  0  0  0999 V2000
    1.6857    0.6465   -0.5103 N   0  0  0  0  0  0  0  0  0  0  0  0
    0.3990    0.9745   -0.6145 N   0  0  0  0  0  0  0  0  0  0  0  0
   -0.5371    0.3590    0.1528 C   0  0  0  0  0  0  0  0  0  0  0  0
   -0.1317   -0.5822    1.0420 N   0  0  0  0  0  0  0  0  0  0  0  0
    1.1550   -0.9104    1.1463 N   0  0  0  0  0  0  0  0  0  0  0  0
    2.0915   -0.2959    0.3783 C   0  0  0  0  0  0  0  0  0  0  0  0
  1  2  4  0
  2  3  4  0
  3  4  4  0
  4  5  4  0
  5  6  4  0
  6  1  4  0
M  END
$$$$

     RDKit          3D

  6  6  0  0  0  0  0  0  0  0999 V2000
    1.7177    0.7859    0.2616 N   0  0  0  0  0  0  0  0  0  0  0  0
    0.4519    1.1903    0.1711 N   0  0  0  0  0  0  0  0  0  0  0  0
   -0.5095    0.3566   -0.3027 C   0  0  0  0  0  0  0  0  0  0  0  0
   -0.1501   -0.8896   -0.7009 N   0  0  0  0  0  0  0  0  0  0  0  0
    1.1157   -1.2942   -0.6104 N   0  0  0  0  0  0  0  0  0  0  0  0
    2.0775   -0.4612   -0.1355 C   0  0  0  0  0  0  0  0  0  0  0  0
  1  2  4  0
  2  3  4  0
  3  4  4  0
  4  5  4  0
  5  6  4  0
  6  1  4  0
M  END
$$$$

     RDKit          3D

  6  6  0  0  0  0  0  0  0  0999 V2000
    1.7177    0.7859    0.2616 N   0  0  0  0  0  0  0  0  0  0  0  0
    0.4519    1.1903    0.1711 N   0  0  0  0  0  0  0  0  0  0  0  0
   -0.5095    0.3566   -0.3027 C   0  0  0  0  0  0  0  0  0  0  0  0
   -0.1501   -0.8896   -0.7009 N   0  0  0  0  0  0  0  0  0  0  0  0
    1.1157   -1.2942   -0.6104 N   0  0  0  0  0  0  0  0  0  0  0  0
    2.0775   -0.4612   -0.1355 C   0  0  0  0  0  0  0  0  0  0  0  0
  1  2  4  0
  2  3  4  0
  3  4  4  0
  4  5  4  0
  5  6  4  0
  6  1  4  0
M  END
$$$$

     RDKit          3D

  6  6  0  0  0  0  0  0  0  0999 V2000
    1.4263    0.4708    0.6747 N   0  0  0  0  0  0  0  0  0  0  0  0
    0.0993    0.4041    0.7652 N   0  0  0  0  0  0  0  0  0  0  0  0
   -0.6870    0.8340   -0.2533 C   0  0  0  0  0  0  0  0  0  0  0  0
   -0.0937    1.3668   -1.3525 N   0  0  0  0  0  0  0  0  0  0  0  0
    1.2336    1.4338   -1.4431 N   0  0  0  0  0  0  0  0  0  0  0  0
    2.0212    0.9711   -0.4378 C   0  0  0  0  0  0  0  0  0  0  0  0
  1  2  4  0
  2  3  4  0
  3  4  4  0
  4  5  4  0
  5  6  4  0
  6  1  4  0
M  END
$$$$

     RDKit          3D

  6  6  0  0  0  0  0  0  0  0999 V2000
    1.4263    0.4708    0.6747 N   0  0  0  0  0  0  0  0  0  0  0  0
    0.0993    0.4041    0.7652 N   0  0  0  0  0  0  0  0  0  0  0  0
   -0.6870    0.8340   -0.2533 C   0  0  0  0  0  0  0  0  0  0  0  0
   -0.0937    1.3668   -1.3525 N   0  0  0  0  0  0  0  0  0  0  0  0
    1.2336    1.4338   -1.4431 N   0  0  0  0  0  0  0  0  0  0  0  0
    2.0212    0.9711   -0.4378 C   0  0  0  0  0  0  0  0  0  0  0  0
  1  2  4  0
  2  3  4  0
  3  4  4  0
  4  5  4  0
  5  6  4  0
  6  1  4  0
M  END
$$$$

     RDKit          3D

  6  6  0  0  0  0  0  0  0  0999 V2000
   -1.1853   -1.2639   -0.8661 N   0  0  0  0  0  0  0  0  0  0  0  0
    0.0941   -0.9179   -0.9981 N   0  0  0  0  0  0  0  0  0  0  0  0
    0.5154    0.3244   -0.6513 C   0  0  0  0  0  0  0  0  0  0  0  0
   -0.3983    1.2145   -0.1860 N   0  0  0  0  0  0  0  0  0  0  0  0
   -1.6778    0.8686   -0.0540 N   0  0  0  0  0  0  0  0  0  0  0  0
   -2.0995   -0.3744   -0.3997 C   0  0  0  0  0  0  0  0  0  0  0  0
  1  2  4  0
  2  3  4  0
  3  4  4  0
  4  5  4  0
  5  6  4  0
  6  1  4  0
M  END
$$$$

     RDKit          3D

  6  6  0  0  0  0  0  0  0  0999 V2000
   -1.1853   -1.2639   -0.8661 N   0  0  0  0  0  0  0  0  0  0  0  0
    0.0941   -0.9179   -0.9981 N   0  0  0  0  0  0  0  0  0  0  0  0
    0.5154    0.3244   -0.6513 C   0  0  0  0  0  0  0  0  0  0  0  0
   -0.3983    1.2145   -0.1860 N   0  0  0  0  0  0  0  0  0  0  0  0
   -1.6778    0.8686   -0.0540 N   0  0  0  0  0  0  0  0  0  0  0  0
   -2.0995   -0.3744   -0.3997 C   0  0  0  0  0  0  0  0  0  0  0  0
  1  2  4  0
  2  3  4  0
  3  4  4  0
  4  5  4  0
  5  6  4  0
  6  1  4  0
M  END
$$$$

     RDKit          3D

  6  6  0  0  0  0  0  0  0  0999 V2000
   -1.6578   -0.9742   -1.5597 N   0  0  0  0  0  0  0  0  0  0  0  0
   -0.3355   -1.0671   -1.6914 N   0  0  0  0  0  0  0  0  0  0  0  0
    0.4799   -0.1085   -1.1816 C   0  0  0  0  0  0  0  0  0  0  0  0
   -0.0815    0.9634   -0.5683 N   0  0  0  0  0  0  0  0  0  0  0  0
   -1.4035    1.0564   -0.4371 N   0  0  0  0  0  0  0  0  0  0  0  0
   -2.2176    0.0815   -0.9140 C   0  0  0  0  0  0  0  0  0  0  0  0
  1  2  4  0
  2  3  4  0
  3  4  4  0
  4  5  4  0
  5  6  4  0
  6  1  4  0
M  END
$$$$

     RDKit          3D

  6  6  0  0  0  0  0  0  0  0999 V2000
   -1.6578   -0.9742   -1.5597 N   0  0  0  0  0  0  0  0  0  0  0  0
   -0.3355   -1.0671   -1.6914 N   0  0  0  0  0  0  0  0  0  0  0  0
    0.4799   -0.1085   -1.1816 C   0  0  0  0  0  0  0  0  0  0  0  0
   -0.0815    0.9634   -0.5683 N   0  0  0  0  0  0  0  0  0  0  0  0
   -1.4035    1.0564   -0.4371 N   0  0  0  0  0  0  0  0  0  0  0  0
   -2.2176    0.0815   -0.9140 C   0  0  0  0  0  0  0  0  0  0  0  0
  1  2  4  0
  2  3  4  0
  3  4  4  0
  4  5  4  0
  5  6  4  0
  6  1  4  0
M  END
$$$$

     RDKit          3D

  6  6  0  0  0  0  0  0  0  0999 V2000
    1.3743    0.9453   -0.6580 N   0  0  0  0  0  0  0  0  0  0  0  0
    0.0488    0.9267   -0.5309 N   0  0  0  0  0  0  0  0  0  0  0  0
   -0.5281    0.6979    0.6754 C   0  0  0  0  0  0  0  0  0  0  0  0
    0.2736    0.5244    1.7575 N   0  0  0  0  0  0  0  0  0  0  0  0
    1.5995    0.5426    1.6301 N   0  0  0  0  0  0  0  0  0  0  0  0
    2.1766    0.7360    0.4159 C   0  0  0  0  0  0  0  0  0  0  0  0
  1  2  4  0
  2  3  4  0
  3  4  4  0
  4  5  4  0
  5  6  4  0
  6  1  4  0
M  END
$$$$

     RDKit          3D

  6  6  0  0  0  0  0  0  0  0999 V2000
    1.3743    0.9453   -0.6580 N   0  0  0  0  0  0  0  0  0  0  0  0
    0.0488    0.9267   -0.5309 N   0  0  0  0  0  0  0  0  0  0  0  0
   -0.5281    0.6979    0.6754 C   0  0  0  0  0  0  0  0  0  0  0  0
    0.2736    0.5244    1.7575 N   0  0  0  0  0  0  0  0  0  0  0  0
    1.5995    0.5426    1.6301 N   0  0  0  0  0  0  0  0  0  0  0  0
    2.1766    0.7360    0.4159 C   0  0  0  0  0  0  0  0  0  0  0  0
  1  2  4  0
  2  3  4  0
  3  4  4  0
  4  5  4  0
  5  6  4  0
  6  1  4  0
M  END
$$$$

     RDKit          3D

  6  6  0  0  0  0  0  0  0  0999 V2000
   -1.3191   -1.4871   -1.3105 N   0  0  0  0  0  0  0  0  0  0  0  0
    0.0093   -1.3885   -1.2967 N   0  0  0  0  0  0  0  0  0  0  0  0
    0.6562   -0.9054   -0.2050 C   0  0  0  0  0  0  0  0  0  0  0  0
   -0.0754   -0.5602    0.8841 N   0  0  0  0  0  0  0  0  0  0  0  0
   -1.4034   -0.6593    0.8704 N   0  0  0  0  0  0  0  0  0  0  0  0
   -2.0536   -1.1077   -0.2328 C   0  0  0  0  0  0  0  0  0  0  0  0
  1  2  4  0
  2  3  4  0
  3  4  4  0
  4  5  4  0
  5  6  4  0
  6  1  4  0
M  END
$$$$

     RDKit          3D

  6  6  0  0  0  0  0  0  0  0999 V2000
   -1.3191   -1.4871   -1.3105 N   0  0  0  0  0  0  0  0  0  0  0  0
    0.0093   -1.3885   -1.2967 N   0  0  0  0  0  0  0  0  0  0  0  0
    0.6562   -0.9054   -0.2050 C   0  0  0  0  0  0  0  0  0  0  0  0
   -0.0754   -0.5602    0.8841 N   0  0  0  0  0  0  0  0  0  0  0  0
   -1.4034   -0.6593    0.8704 N   0  0  0  0  0  0  0  0  0  0  0  0
   -2.0536   -1.1077   -0.2328 C   0  0  0  0  0  0  0  0  0  0  0  0
  1  2  4  0
  2  3  4  0
  3  4  4  0
  4  5  4  0
  5  6  4  0
  6  1  4  0
M  END
$$$$

     RDKit          3D

  6  6  0  0  0  0  0  0  0  0999 V2000
   -1.5189    0.5123   -0.5145 N   0  0  0  0  0  0  0  0  0  0  0  0
   -0.2046    0.6670   -0.6647 N   0  0  0  0  0  0  0  0  0  0  0  0
    0.6019   -0.4095   -0.8430 C   0  0  0  0  0  0  0  0  0  0  0  0
    0.0391   -1.6433   -0.9058 N   0  0  0  0  0  0  0  0  0  0  0  0
   -1.2756   -1.7974   -0.7561 N   0  0  0  0  0  0  0  0  0  0  0  0
   -2.0791   -0.7239   -0.5393 C   0  0  0  0  0  0  0  0  0  0  0  0
  1  2  4  0
  2  3  4  0
  3  4  4  0
  4  5  4  0
  5  6  4  0
  6  1  4  0
M  END
$$$$

     RDKit          3D

  6  6  0  0  0  0  0  0  0  0999 V2000
   -1.5189    0.5123   -0.5145 N   0  0  0  0  0  0  0  0  0  0  0  0
   -0.2046    0.6670   -0.6647 N   0  0  0  0  0  0  0  0  0  0  0  0
    0.6019   -0.4095   -0.8430 C   0  0  0  0  0  0  0  0  0  0  0  0
    0.0391   -1.6433   -0.9058 N   0  0  0  0  0  0  0  0  0  0  0  0
   -1.2756   -1.7974   -0.7561 N   0  0  0  0  0  0  0  0  0  0  0  0
   -2.0791   -0.7239   -0.5393 C   0  0  0  0  0  0  0  0  0  0  0  0
  1  2  4  0
  2  3  4  0
  3  4  4  0
  4  5  4  0
  5  6  4  0
  6  1  4  0
M  END
$$$$

     RDKit          3D

  6  6  0  0  0  0  0  0  0  0999 V2000
   -1.5871    1.4071   -1.3098 N   0  0  0  0  0  0  0  0  0  0  0  0
   -0.2601    1.4997   -1.3800 N   0  0  0  0  0  0  0  0  0  0  0  0
    0.5242    0.9395   -0.4233 C   0  0  0  0  0  0  0  0  0  0  0  0
   -0.0727    0.3137    0.6227 N   0  0  0  0  0  0  0  0  0  0  0  0
   -1.3994    0.2220    0.6926 N   0  0  0  0  0  0  0  0  0  0  0  0
   -2.1830    0.7511   -0.2805 C   0  0  0  0  0  0  0  0  0  0  0  0
  1  2  4  0
  2  3  4  0
  3  4  4  0
  4  5  4  0
  5  6  4  0
  6  1  4  0
M  END
$$$$

     RDKit          3D

  6  6  0  0  0  0  0  0  0  0999 V2000
   -1.5871    1.4071   -1.3098 N   0  0  0  0  0  0  0  0  0  0  0  0
   -0.2601    1.4997   -1.3800 N   0  0  0  0  0  0  0  0  0  0  0  0
    0.5242    0.9395   -0.4233 C   0  0  0  0  0  0  0  0  0  0  0  0
   -0.0727    0.3137    0.6227 N   0  0  0  0  0  0  0  0  0  0  0  0
   -1.3994    0.2220    0.6926 N   0  0  0  0  0  0  0  0  0  0  0  0
   -2.1830    0.7511   -0.2805 C   0  0  0  0  0  0  0  0  0  0  0  0
  1  2  4  0
  2  3  4  0
  3  4  4  0
  4  5  4  0
  5  6  4  0
  6  1  4  0
M  END
$$$$

     RDKit          3D

  6  6  0  0  0  0  0  0  0  0999 V2000
    1.4023   -0.3213   -0.5630 N   0  0  0  0  0  0  0  0  0  0  0  0
    0.0713   -0.2899   -0.5298 N   0  0  0  0  0  0  0  0  0  0  0  0
   -0.5927    0.8905   -0.4597 C   0  0  0  0  0  0  0  0  0  0  0  0
    0.1275    2.0419   -0.4595 N   0  0  0  0  0  0  0  0  0  0  0  0
    1.4589    2.0111   -0.4928 N   0  0  0  0  0  0  0  0  0  0  0  0
    2.1239    0.8275   -0.5280 C   0  0  0  0  0  0  0  0  0  0  0  0
  1  2  4  0
  2  3  4  0
  3  4  4  0
  4  5  4  0
  5  6  4  0
  6  1  4  0
M  END
$$$$

     RDKit          3D

  6  6  0  0  0  0  0  0  0  0999 V2000
    1.4023   -0.3213   -0.5630 N   0  0  0  0  0  0  0  0  0  0  0  0
    0.0713   -0.2899   -0.5298 N   0  0  0  0  0  0  0  0  0  0  0  0
   -0.5927    0.8905   -0.4597 C   0  0  0  0  0  0  0  0  0  0  0  0
    0.1275    2.0419   -0.4595 N   0  0  0  0  0  0  0  0  0  0  0  0
    1.4589    2.0111   -0.4928 N   0  0  0  0  0  0  0  0  0  0  0  0
    2.1239    0.8275   -0.5280 C   0  0  0  0  0  0  0  0  0  0  0  0
  1  2  4  0
  2  3  4  0
  3  4  4  0
  4  5  4  0
  5  6  4  0
  6  1  4  0
M  END
$$$$

     RDKit          3D

  6  6  0  0  0  0  0  0  0  0999 V2000
    1.6407   -0.3774    1.0879 N   0  0  0  0  0  0  0  0  0  0  0  0
    0.3282   -0.4463    1.3038 N   0  0  0  0  0  0  0  0  0  0  0  0
   -0.5484    0.1100    0.4285 C   0  0  0  0  0  0  0  0  0  0  0  0
   -0.0580    0.7546   -0.6596 N   0  0  0  0  0  0  0  0  0  0  0  0
    1.2545    0.8237   -0.8760 N   0  0  0  0  0  0  0  0  0  0  0  0
    2.1315    0.2666   -0.0014 C   0  0  0  0  0  0  0  0  0  0  0  0
  1  2  4  0
  2  3  4  0
  3  4  4  0
  4  5  4  0
  5  6  4  0
  6  1  4  0
M  END
$$$$

     RDKit          3D

  6  6  0  0  0  0  0  0  0  0999 V2000
    1.6407   -0.3774    1.0879 N   0  0  0  0  0  0  0  0  0  0  0  0
    0.3282   -0.4463    1.3038 N   0  0  0  0  0  0  0  0  0  0  0  0
   -0.5484    0.1100    0.4285 C   0  0  0  0  0  0  0  0  0  0  0  0
   -0.0580    0.7546   -0.6596 N   0  0  0  0  0  0  0  0  0  0  0  0
    1.2545    0.8237   -0.8760 N   0  0  0  0  0  0  0  0  0  0  0  0
    2.1315    0.2666   -0.0014 C   0  0  0  0  0  0  0  0  0  0  0  0
  1  2  4  0
  2  3  4  0
  3  4  4  0
  4  5  4  0
  5  6  4  0
  6  1  4  0
M  END
$$$$

     RDKit          3D

  6  6  0  0  0  0  0  0  0  0999 V2000
    1.7331    0.0026    1.2393 N   0  0  0  0  0  0  0  0  0  0  0  0
    0.4737   -0.3860    1.4319 N   0  0  0  0  0  0  0  0  0  0  0  0
   -0.4317   -0.3286    0.4215 C   0  0  0  0  0  0  0  0  0  0  0  0
   -0.0214    0.1145   -0.7930 N   0  0  0  0  0  0  0  0  0  0  0  0
    1.2379    0.5031   -0.9860 N   0  0  0  0  0  0  0  0  0  0  0  0
    2.1433    0.4458    0.0243 C   0  0  0  0  0  0  0  0  0  0  0  0
  1  2  4  0
  2  3  4  0
  3  4  4  0
  4  5  4  0
  5  6  4  0
  6  1  4  0
M  END
$$$$

     RDKit          3D

  6  6  0  0  0  0  0  0  0  0999 V2000
    1.7331    0.0026    1.2393 N   0  0  0  0  0  0  0  0  0  0  0  0
    0.4737   -0.3860    1.4319 N   0  0  0  0  0  0  0  0  0  0  0  0
   -0.4317   -0.3286    0.4215 C   0  0  0  0  0  0  0  0  0  0  0  0
   -0.0214    0.1145   -0.7930 N   0  0  0  0  0  0  0  0  0  0  0  0
    1.2379    0.5031   -0.9860 N   0  0  0  0  0  0  0  0  0  0  0  0
    2.1433    0.4458    0.0243 C   0  0  0  0  0  0  0  0  0  0  0  0
  1  2  4  0
  2  3  4  0
  3  4  4  0
  4  5  4  0
  5  6  4  0
  6  1  4  0
M  END
$$$$

     RDKit          3D

  3  2  0  0  0  0  0  0  0  0999 V2000
   -0.0395    1.8577    0.0001 F   0  0  0  0  0  0  0  0  0  0  0  0
   -0.4621    0.5675    0.0487 C   0  0  0  0  0  0  0  0  0  0  0  0
    0.4348   -0.4323    0.0052 C   0  0  0  0  0  0  0  0  0  0  0  0
  1  2  1  0
  2  3  2  0
M  END
$$$$

     RDKit          3D

  3  2  0  0  0  0  0  0  0  0999 V2000
    0.0720    1.2330   -1.5428 F   0  0  0  0  0  0  0  0  0  0  0  0
    0.4729    0.3849   -0.5600 C   0  0  0  0  0  0  0  0  0  0  0  0
   -0.4428   -0.2859    0.1593 C   0  0  0  0  0  0  0  0  0  0  0  0
  1  2  1  0
  2  3  2  0
M  END
$$$$

     RDKit          3D

  3  2  0  0  0  0  0  0  0  0999 V2000
   -0.2881   -0.2311   -1.8063 F   0  0  0  0  0  0  0  0  0  0  0  0
   -0.5301   -0.0183   -0.4865 C   0  0  0  0  0  0  0  0  0  0  0  0
    0.4937    0.0241    0.3829 C   0  0  0  0  0  0  0  0  0  0  0  0
  1  2  1  0
  2  3  2  0
M  END
$$$$

     RDKit          3D

  3  2  0  0  0  0  0  0  0  0999 V2000
    0.2013   -1.8321    0.0273 F   0  0  0  0  0  0  0  0  0  0  0  0
   -0.3795   -0.6043    0.0595 C   0  0  0  0  0  0  0  0  0  0  0  0
    0.3724    0.4961   -0.1126 C   0  0  0  0  0  0  0  0  0  0  0  0
  1  2  1  0
  2  3  2  0
M  END
$$$$

     RDKit          3D

  3  2  0  0  0  0  0  0  0  0999 V2000
   -0.0988   -1.5713    0.8092 F   0  0  0  0  0  0  0  0  0  0  0  0
   -0.4782   -0.4001    0.2347 C   0  0  0  0  0  0  0  0  0  0  0  0
    0.4542    0.4663   -0.1964 C   0  0  0  0  0  0  0  0  0  0  0  0
  1  2  1  0
  2  3  2  0
M  END
$$$$

     RDKit          3D

  3  2  0  0  0  0  0  0  0  0999 V2000
   -0.0320   -0.8993    1.6971 F   0  0  0  0  0  0  0  0  0  0  0  0
    0.4361   -0.3118    0.5654 C   0  0  0  0  0  0  0  0  0  0  0  0
   -0.4189    0.2672   -0.2952 C   0  0  0  0  0  0  0  0  0  0  0  0
  1  2  1  0
  2  3  2  0
M  END
$$$$

     RDKit          3D

  3  2  0  0  0  0  0  0  0  0999 V2000
    0.2037   -0.7133    1.5353 F   0  0  0  0  0  0  0  0  0  0  0  0
    0.5091   -0.1515    0.3366 C   0  0  0  0  0  0  0  0  0  0  0  0
   -0.4691    0.1579   -0.5301 C   0  0  0  0  0  0  0  0  0  0  0  0
  1  2  1  0
  2  3  2  0
M  END
$$$$

     RDKit          3D

  3  2  0  0  0  0  0  0  0  0999 V2000
   -0.1825   -1.7510    0.5702 F   0  0  0  0  0  0  0  0  0  0  0  0
   -0.5027   -0.5138    0.1091 C   0  0  0  0  0  0  0  0  0  0  0  0
    0.4648    0.3876   -0.1258 C   0  0  0  0  0  0  0  0  0  0  0  0
  1  2  1  0
  2  3  2  0
M  END
$$$$

     RDKit          3D

  3  2  0  0  0  0  0  0  0  0999 V2000
    0.1056    1.8539   -0.6651 F   0  0  0  0  0  0  0  0  0  0  0  0
    0.4840    0.6383   -0.1907 C   0  0  0  0  0  0  0  0  0  0  0  0
   -0.4449   -0.2566    0.1834 C   0  0  0  0  0  0  0  0  0  0  0  0
  1  2  1  0
  2  3  2  0
M  END
$$$$

     RDKit          3D

  3  2  0  0  0  0  0  0  0  0999 V2000
    0.1024   -1.4456   -1.1825 F   0  0  0  0  0  0  0  0  0  0  0  0
    0.4779   -0.4043   -0.3955 C   0  0  0  0  0  0  0  0  0  0  0  0
   -0.4439    0.3160    0.2646 C   0  0  0  0  0  0  0  0  0  0  0  0
  1  2  1  0
  2  3  2  0
M  END
$$$$

     RDKit          3D

  3  2  0  0  0  0  0  0  0  0999 V2000
   -0.0655    1.5037    1.1609 F   0  0  0  0  0  0  0  0  0  0  0  0
    0.4278    0.4684    0.4332 C   0  0  0  0  0  0  0  0  0  0  0  0
   -0.4044   -0.4081   -0.1527 C   0  0  0  0  0  0  0  0  0  0  0  0
  1  2  1  0
  2  3  2  0
M  END
$$$$

     RDKit          3D

  3  2  0  0  0  0  0  0  0  0999 V2000
   -0.8049    3.8600    0.0393 F   0  0  0  0  0  0  0  0  0  0  0  0
   -0.3402    2.5850    0.0372 C   0  0  0  0  0  0  0  0  0  0  0  0
    0.9679    2.3871    0.2713 C   0  0  0  0  0  0  0  0  0  0  0  0
  1  2  1  0
  2  3  2  0
M  END
$$$$
