
     RDKit          3D

  3  2  0  0  0  0  0  0  0  0999 V2000
   -0.0150    1.7361    0.6756 F   0  0  0  0  0  0  0  0  0  0  0  0
   -0.4484    0.5384    0.2026 C   0  0  0  0  0  0  0  0  0  0  0  0
    0.4400   -0.4301   -0.0773 C   0  0  0  0  0  0  0  0  0  0  0  0
  1  2  1  0
  2  3  2  0
M  END
$$$$

     RDKit          3D

  3  2  0  0  0  0  0  0  0  0999 V2000
   -0.0650    1.1653    1.4290 F   0  0  0  0  0  0  0  0  0  0  0  0
   -0.4635    0.3253    0.4382 C   0  0  0  0  0  0  0  0  0  0  0  0
    0.4519   -0.2382   -0.3681 C   0  0  0  0  0  0  0  0  0  0  0  0
  1  2  1  0
  2  3  2  0
M  END
$$$$

     RDKit          3D

  3  2  0  0  0  0  0  0  0  0999 V2000
    0.0598    1.3522    1.2342 F   0  0  0  0  0  0  0  0  0  0  0  0
   -0.4243    0.4265    0.3656 C   0  0  0  0  0  0  0  0  0  0  0  0
    0.4236   -0.3591   -0.3202 C   0  0  0  0  0  0  0  0  0  0  0  0
  1  2  1  0
  2  3  2  0
M  END
$$$$

     RDKit          3D

  3  2  0  0  0  0  0  0  0  0999 V2000
   -0.0410   -1.6638   -0.8304 F   0  0  0  0  0  0  0  0  0  0  0  0
   -0.4532   -0.5165   -0.2308 C   0  0  0  0  0  0  0  0  0  0  0  0
    0.4466    0.4168    0.1236 C   0  0  0  0  0  0  0  0  0  0  0  0
  1  2  1  0
  2  3  2  0
M  END
$$$$

     RDKit          3D

  3  2  0  0  0  0  0  0  0  0999 V2000
   -0.1511   -1.1863    1.2390 F   0  0  0  0  0  0  0  0  0  0  0  0
   -0.4827   -0.3984    0.1828 C   0  0  0  0  0  0  0  0  0  0  0  0
    0.4687    0.2973   -0.4608 C   0  0  0  0  0  0  0  0  0  0  0  0
  1  2  1  0
  2  3  2  0
M  END
$$$$

     RDKit          3D

  3  2  0  0  0  0  0  0  0  0999 V2000
    0.0587    1.7294   -0.7609 F   0  0  0  0  0  0  0  0  0  0  0  0
   -0.4252    0.5171   -0.3836 C   0  0  0  0  0  0  0  0  0  0  0  0
    0.4201   -0.4540   -0.0015 C   0  0  0  0  0  0  0  0  0  0  0  0
  1  2  1  0
  2  3  2  0
M  END
$$$$

     RDKit          3D

  3  2  0  0  0  0  0  0  0  0999 V2000
    0.0319   -1.4181   -1.1746 F   0  0  0  0  0  0  0  0  0  0  0  0
   -0.4201   -0.3584   -0.4542 C   0  0  0  0  0  0  0  0  0  0  0  0
    0.4234    0.3248    0.3365 C   0  0  0  0  0  0  0  0  0  0  0  0
  1  2  1  0
  2  3  2  0
M  END
$$$$

     RDKit          3D

  3  2  0  0  0  0  0  0  0  0999 V2000
   -0.0642   -1.3966   -1.0964 F   0  0  0  0  0  0  0  0  0  0  0  0
   -0.4624   -0.4138   -0.2465 C   0  0  0  0  0  0  0  0  0  0  0  0
    0.4599    0.3408    0.3724 C   0  0  0  0  0  0  0  0  0  0  0  0
  1  2  1  0
  2  3  2  0
M  END
$$$$

     RDKit          3D

  3  2  0  0  0  0  0  0  0  0999 V2000
   -0.0372   -1.7537    0.4454 F   0  0  0  0  0  0  0  0  0  0  0  0
   -0.4533   -0.5291    0.0301 C   0  0  0  0  0  0  0  0  0  0  0  0
    0.4394    0.4458   -0.2082 C   0  0  0  0  0  0  0  0  0  0  0  0
  1  2  1  0
  2  3  2  0
M  END
$$$$

     RDKit          3D

  3  2  0  0  0  0  0  0  0  0999 V2000
   -0.0361   -1.5229    1.1220 F   0  0  0  0  0  0  0  0  0  0  0  0
    0.4309   -0.4681    0.4047 C   0  0  0  0  0  0  0  0  0  0  0  0
   -0.4228    0.4235   -0.1247 C   0  0  0  0  0  0  0  0  0  0  0  0
  1  2  1  0
  2  3  2  0
M  END
$$$$

     RDKit          3D

  3  2  0  0  0  0  0  0  0  0999 V2000
    0.0388    1.7058    0.6998 F   0  0  0  0  0  0  0  0  0  0  0  0
    0.4539    0.5090    0.2094 C   0  0  0  0  0  0  0  0  0  0  0  0
   -0.4421   -0.4304   -0.1352 C   0  0  0  0  0  0  0  0  0  0  0  0
  1  2  1  0
  2  3  2  0
M  END
$$$$

     RDKit          3D

  3  2  0  0  0  0  0  0  0  0999 V2000
    0.0310   -1.3643   -1.1288 F   0  0  0  0  0  0  0  0  0  0  0  0
   -0.4311   -0.4542   -0.2315 C   0  0  0  0  0  0  0  0  0  0  0  0
    0.4324    0.3535    0.4031 C   0  0  0  0  0  0  0  0  0  0  0  0
  1  2  1  0
  2  3  2  0
M  END
$$$$

     RDKit          3D

  3  2  0  0  0  0  0  0  0  0999 V2000
   -0.0876   -1.4744    1.0568 F   0  0  0  0  0  0  0  0  0  0  0  0
   -0.4646   -0.3963    0.3209 C   0  0  0  0  0  0  0  0  0  0  0  0
    0.4632    0.3665   -0.2778 C   0  0  0  0  0  0  0  0  0  0  0  0
  1  2  1  0
  2  3  2  0
M  END
$$$$

     RDKit          3D

  3  2  0  0  0  0  0  0  0  0999 V2000
    0.9793   -3.8756    0.7714 F   0  0  0  0  0  0  0  0  0  0  0  0
    0.4590   -2.6416    0.5502 C   0  0  0  0  0  0  0  0  0  0  0  0
   -0.8781   -2.5093    0.5661 C   0  0  0  0  0  0  0  0  0  0  0  0
  1  2  1  0
  2  3  2  0
M  END
$$$$

     RDKit          3D

  3  2  0  0  0  0  0  0  0  0999 V2000
   -1.4406   -3.5699   -0.8448 F   0  0  0  0  0  0  0  0  0  0  0  0
   -0.7675   -2.4270   -0.5579 C   0  0  0  0  0  0  0  0  0  0  0  0
    0.5743   -2.4497   -0.6179 C   0  0  0  0  0  0  0  0  0  0  0  0
  1  2  1  0
  2  3  2  0
M  END
$$$$

     RDKit          3D

  6  6  0  0  0  0  0  0  0  0999 V2000
   -0.7792    0.6199   -0.6650 N   0  0  0  0  0  0  0  0  0  0  0  0
    0.1930    1.1512    0.0745 N   0  0  0  0  0  0  0  0  0  0  0  0
    1.0546    0.3586    0.7637 C   0  0  0  0  0  0  0  0  0  0  0  0
    0.9012   -0.9887    0.6808 N   0  0  0  0  0  0  0  0  0  0  0  0
   -0.0710   -1.5199   -0.0587 N   0  0  0  0  0  0  0  0  0  0  0  0
   -0.9326   -0.7273   -0.7478 C   0  0  0  0  0  0  0  0  0  0  0  0
  1  2  4  0
  2  3  4  0
  3  4  4  0
  4  5  4  0
  5  6  4  0
  6  1  4  0
M  END
$$$$

     RDKit          3D

  6  6  0  0  0  0  0  0  0  0999 V2000
   -0.9097    1.2006    0.1433 N   0  0  0  0  0  0  0  0  0  0  0  0
    0.3769    1.3843    0.4349 N   0  0  0  0  0  0  0  0  0  0  0  0
    1.2758    0.3777    0.2789 C   0  0  0  0  0  0  0  0  0  0  0  0
    0.8314   -0.8206   -0.1815 N   0  0  0  0  0  0  0  0  0  0  0  0
   -0.4552   -1.0043   -0.4731 N   0  0  0  0  0  0  0  0  0  0  0  0
   -1.3541    0.0022   -0.3171 C   0  0  0  0  0  0  0  0  0  0  0  0
  1  2  4  0
  2  3  4  0
  3  4  4  0
  4  5  4  0
  5  6  4  0
  6  1  4  0
M  END
$$$$

     RDKit          3D

  6  6  0  0  0  0  0  0  0  0999 V2000
   -0.1960   -0.6542    1.1824 N   0  0  0  0  0  0  0  0  0  0  0  0
    1.0400   -0.5077    0.7080 N   0  0  0  0  0  0  0  0  0  0  0  0
    1.2632    0.1498   -0.4596 C   0  0  0  0  0  0  0  0  0  0  0  0
    0.1960    0.6543   -1.1320 N   0  0  0  0  0  0  0  0  0  0  0  0
   -1.0400    0.5077   -0.6576 N   0  0  0  0  0  0  0  0  0  0  0  0
   -1.2632   -0.1498    0.5100 C   0  0  0  0  0  0  0  0  0  0  0  0
  1  2  4  0
  2  3  4  0
  3  4  4  0
  4  5  4  0
  5  6  4  0
  6  1  4  0
M  END
$$$$

     RDKit          3D

  6  6  0  0  0  0  0  0  0  0999 V2000
   -0.1034    0.1240   -1.3093 N   0  0  0  0  0  0  0  0  0  0  0  0
    0.9374   -0.5184   -0.7817 N   0  0  0  0  0  0  0  0  0  0  0  0
    1.0606   -0.6551    0.5642 C   0  0  0  0  0  0  0  0  0  0  0  0
    0.0971   -0.1213    1.3594 N   0  0  0  0  0  0  0  0  0  0  0  0
   -0.9436    0.5211    0.8318 N   0  0  0  0  0  0  0  0  0  0  0  0
   -1.0669    0.6579   -0.5141 C   0  0  0  0  0  0  0  0  0  0  0  0
  1  2  4  0
  2  3  4  0
  3  4  4  0
  4  5  4  0
  5  6  4  0
  6  1  4  0
M  END
$$$$

     RDKit          3D

  6  6  0  0  0  0  0  0  0  0999 V2000
   -0.4726    1.0714   -0.6719 N   0  0  0  0  0  0  0  0  0  0  0  0
    0.8427    0.8873   -0.5711 N   0  0  0  0  0  0  0  0  0  0  0  0
    1.3460   -0.1818    0.0991 C   0  0  0  0  0  0  0  0  0  0  0  0
    0.4759   -1.0588    0.6642 N   0  0  0  0  0  0  0  0  0  0  0  0
   -0.8395   -0.8747    0.5635 N   0  0  0  0  0  0  0  0  0  0  0  0
   -1.3427    0.1944   -0.1068 C   0  0  0  0  0  0  0  0  0  0  0  0
  1  2  4  0
  2  3  4  0
  3  4  4  0
  4  5  4  0
  5  6  4  0
  6  1  4  0
M  END
$$$$

     RDKit          3D

  6  6  0  0  0  0  0  0  0  0999 V2000
    0.4908    0.7737    0.7710 N   0  0  0  0  0  0  0  0  0  0  0  0
   -0.7765    0.8076    0.3624 N   0  0  0  0  0  0  0  0  0  0  0  0
   -1.2627   -0.1448   -0.4754 C   0  0  0  0  0  0  0  0  0  0  0  0
   -0.4257   -1.1326   -0.8868 N   0  0  0  0  0  0  0  0  0  0  0  0
    0.8417   -1.1665   -0.4783 N   0  0  0  0  0  0  0  0  0  0  0  0
    1.3278   -0.2141    0.3597 C   0  0  0  0  0  0  0  0  0  0  0  0
  1  2  4  0
  2  3  4  0
  3  4  4  0
  4  5  4  0
  5  6  4  0
  6  1  4  0
M  END
$$$$

     RDKit          3D

  6  6  0  0  0  0  0  0  0  0999 V2000
   -0.2986   -0.4730    1.3932 N   0  0  0  0  0  0  0  0  0  0  0  0
    0.4410    0.6345    1.3693 N   0  0  0  0  0  0  0  0  0  0  0  0
    0.7670    1.2277    0.1915 C   0  0  0  0  0  0  0  0  0  0  0  0
    0.3209    0.6645   -0.9615 N   0  0  0  0  0  0  0  0  0  0  0  0
   -0.4188   -0.4430   -0.9376 N   0  0  0  0  0  0  0  0  0  0  0  0
   -0.7447   -1.0362    0.2402 C   0  0  0  0  0  0  0  0  0  0  0  0
  1  2  4  0
  2  3  4  0
  3  4  4  0
  4  5  4  0
  5  6  4  0
  6  1  4  0
M  END
$$$$
