
     RDKit          3D

  6  6  0  0  0  0  0  0  0  0999 V2000
   -0.3256    0.8399   -0.9839 N   0  0  0  0  0  0  0  0  0  0  0  0
    1.0036    0.9169   -1.0235 N   0  0  0  0  0  0  0  0  0  0  0  0
    1.7672    0.1964   -0.1614 C   0  0  0  0  0  0  0  0  0  0  0  0
    1.1437   -0.5839    0.7582 N   0  0  0  0  0  0  0  0  0  0  0  0
   -0.1853   -0.6609    0.7979 N   0  0  0  0  0  0  0  0  0  0  0  0
   -0.9481    0.0391   -0.0804 C   0  0  0  0  0  0  0  0  0  0  0  0
  1  2  4  0
  2  3  4  0
  3  4  4  0
  4  5  4  0
  5  6  4  0
  6  1  4  0
M  END
$$$$

     RDKit          3D

  6  6  0  0  0  0  0  0  0  0999 V2000
    0.1372   -1.0560    0.1515 N   0  0  0  0  0  0  0  0  0  0  0  0
   -1.1843   -0.9277    0.0464 N   0  0  0  0  0  0  0  0  0  0  0  0
   -1.7507    0.2907   -0.1481 C   0  0  0  0  0  0  0  0  0  0  0  0
   -0.9368    1.3727   -0.2588 N   0  0  0  0  0  0  0  0  0  0  0  0
    0.3848    1.2445   -0.1536 N   0  0  0  0  0  0  0  0  0  0  0  0
    0.9491    0.0287    0.0667 C   0  0  0  0  0  0  0  0  0  0  0  0
  1  2  4  0
  2  3  4  0
  3  4  4  0
  4  5  4  0
  5  6  4  0
  6  1  4  0
M  END
$$$$

     RDKit          3D

  6  6  0  0  0  0  0  0  0  0999 V2000
   -0.0511    1.2298   -0.1792 N   0  0  0  0  0  0  0  0  0  0  0  0
    1.2566    0.9774   -0.1876 N   0  0  0  0  0  0  0  0  0  0  0  0
    1.7234   -0.2775    0.0371 C   0  0  0  0  0  0  0  0  0  0  0  0
    0.8271   -1.2649    0.2961 N   0  0  0  0  0  0  0  0  0  0  0  0
   -0.4807   -1.0126    0.3045 N   0  0  0  0  0  0  0  0  0  0  0  0
   -0.9483    0.2379    0.0541 C   0  0  0  0  0  0  0  0  0  0  0  0
  1  2  4  0
  2  3  4  0
  3  4  4  0
  4  5  4  0
  5  6  4  0
  6  1  4  0
M  END
$$$$

     RDKit          3D

  6  6  0  0  0  0  0  0  0  0999 V2000
   -0.2331    1.3166   -0.2354 N   0  0  0  0  0  0  0  0  0  0  0  0
    1.0917    1.2679   -0.3643 N   0  0  0  0  0  0  0  0  0  0  0  0
    1.7813    0.1460   -0.0313 C   0  0  0  0  0  0  0  0  0  0  0  0
    1.0906   -0.9192    0.4500 N   0  0  0  0  0  0  0  0  0  0  0  0
   -0.2342   -0.8706    0.5789 N   0  0  0  0  0  0  0  0  0  0  0  0
   -0.9236    0.2513    0.2457 C   0  0  0  0  0  0  0  0  0  0  0  0
  1  2  4  0
  2  3  4  0
  3  4  4  0
  4  5  4  0
  5  6  4  0
  6  1  4  0
M  END
$$$$

     RDKit          3D

  6  6  0  0  0  0  0  0  0  0999 V2000
    0.3438    0.8950   -0.9377 N   0  0  0  0  0  0  0  0  0  0  0  0
   -0.9843    0.9525   -1.0214 N   0  0  0  0  0  0  0  0  0  0  0  0
   -1.7646    0.1690   -0.2323 C   0  0  0  0  0  0  0  0  0  0  0  0
   -1.1599   -0.6548    0.6615 N   0  0  0  0  0  0  0  0  0  0  0  0
    0.1680   -0.7124    0.7452 N   0  0  0  0  0  0  0  0  0  0  0  0
    0.9485    0.0516   -0.0613 C   0  0  0  0  0  0  0  0  0  0  0  0
  1  2  4  0
  2  3  4  0
  3  4  4  0
  4  5  4  0
  5  6  4  0
  6  1  4  0
M  END
$$$$

     RDKit          3D

  6  6  0  0  0  0  0  0  0  0999 V2000
   -0.1928    0.7746   -0.8654 N   0  0  0  0  0  0  0  0  0  0  0  0
    1.1350    0.7730   -0.7625 N   0  0  0  0  0  0  0  0  0  0  0  0
    1.7675   -0.1087    0.0534 C   0  0  0  0  0  0  0  0  0  0  0  0
    1.0164   -1.0064    0.7428 N   0  0  0  0  0  0  0  0  0  0  0  0
   -0.3117   -1.0048    0.6400 N   0  0  0  0  0  0  0  0  0  0  0  0
   -0.9454   -0.1055   -0.1567 C   0  0  0  0  0  0  0  0  0  0  0  0
  1  2  4  0
  2  3  4  0
  3  4  4  0
  4  5  4  0
  5  6  4  0
  6  1  4  0
M  END
$$$$

     RDKit          3D

  6  6  0  0  0  0  0  0  0  0999 V2000
   -0.1688    1.1128   -0.7503 N   0  0  0  0  0  0  0  0  0  0  0  0
    1.1608    1.0522   -0.7015 N   0  0  0  0  0  0  0  0  0  0  0  0
    1.7869    0.0153   -0.0867 C   0  0  0  0  0  0  0  0  0  0  0  0
    1.0261   -0.9653    0.4637 N   0  0  0  0  0  0  0  0  0  0  0  0
   -0.3036   -0.9048    0.4149 N   0  0  0  0  0  0  0  0  0  0  0  0
   -0.9294    0.1322   -0.1998 C   0  0  0  0  0  0  0  0  0  0  0  0
  1  2  4  0
  2  3  4  0
  3  4  4  0
  4  5  4  0
  5  6  4  0
  6  1  4  0
M  END
$$$$

     RDKit          3D

  6  6  0  0  0  0  0  0  0  0999 V2000
   -0.2870   -0.3344   -0.8857 N   0  0  0  0  0  0  0  0  0  0  0  0
    1.0423   -0.4144   -0.9114 N   0  0  0  0  0  0  0  0  0  0  0  0
    1.7885    0.0909    0.1041 C   0  0  0  0  0  0  0  0  0  0  0  0
    1.1488    0.6934    1.1399 N   0  0  0  0  0  0  0  0  0  0  0  0
   -0.1805    0.7734    1.1656 N   0  0  0  0  0  0  0  0  0  0  0  0
   -0.9265    0.2679    0.1502 C   0  0  0  0  0  0  0  0  0  0  0  0
  1  2  4  0
  2  3  4  0
  3  4  4  0
  4  5  4  0
  5  6  4  0
  6  1  4  0
M  END
$$$$

     RDKit          3D

  6  6  0  0  0  0  0  0  0  0999 V2000
   -0.1535    0.9443    0.5584 N   0  0  0  0  0  0  0  0  0  0  0  0
    1.1708    0.8033    0.5715 N   0  0  0  0  0  0  0  0  0  0  0  0
    1.7573   -0.2995    0.0395 C   0  0  0  0  0  0  0  0  0  0  0  0
    0.9609   -1.2678   -0.4833 N   0  0  0  0  0  0  0  0  0  0  0  0
   -0.3636   -1.1268   -0.4964 N   0  0  0  0  0  0  0  0  0  0  0  0
   -0.9483   -0.0115    0.0128 C   0  0  0  0  0  0  0  0  0  0  0  0
  1  2  4  0
  2  3  4  0
  3  4  4  0
  4  5  4  0
  5  6  4  0
  6  1  4  0
M  END
$$$$

     RDKit          3D

  7  7  0  0  0  0  0  0  0  0999 V2000
   -1.2121   -2.5050   -0.2663 C   0  0  0  0  0  0  0  0  0  0  0  0
   -0.4620   -1.1996   -0.2225 C   0  0  0  0  0  0  0  0  0  0  0  0
   -1.1458    0.0355   -0.1616 C   0  0  0  0  0  0  0  0  0  0  0  0
   -0.4152    1.2306   -0.1175 C   0  0  0  0  0  0  0  0  0  0  0  0
    0.9798    1.2096   -0.1244 C   0  0  0  0  0  0  0  0  0  0  0  0
    1.6743   -0.0098   -0.1711 C   0  0  0  0  0  0  0  0  0  0  0  0
    0.9431   -1.2099   -0.2159 C   0  0  0  0  0  0  0  0  0  0  0  0
  1  2  1  0
  2  3  4  0
  3  4  4  0
  4  5  4  0
  5  6  4  0
  6  7  4  0
  7  2  4  0
M  END
$$$$

     RDKit          3D

  7  7  0  0  0  0  0  0  0  0999 V2000
    1.2868    1.2904   -2.1719 C   0  0  0  0  0  0  0  0  0  0  0  0
    0.4979    0.6582   -1.0554 C   0  0  0  0  0  0  0  0  0  0  0  0
    1.1450    0.0364    0.0361 C   0  0  0  0  0  0  0  0  0  0  0  0
    0.3794   -0.5460    1.0553 C   0  0  0  0  0  0  0  0  0  0  0  0
   -1.0143   -0.5093    1.0044 C   0  0  0  0  0  0  0  0  0  0  0  0
   -1.6724    0.1172   -0.0661 C   0  0  0  0  0  0  0  0  0  0  0  0
   -0.9062    0.7016   -1.0900 C   0  0  0  0  0  0  0  0  0  0  0  0
  1  2  1  0
  2  3  4  0
  3  4  4  0
  4  5  4  0
  5  6  4  0
  6  7  4  0
  7  2  4  0
M  END
$$$$

     RDKit          3D

  7  7  0  0  0  0  0  0  0  0999 V2000
   -1.2236    1.3982    1.6960 C   0  0  0  0  0  0  0  0  0  0  0  0
   -0.4654    0.6632    0.6220 C   0  0  0  0  0  0  0  0  0  0  0  0
   -1.1418   -0.0596   -0.3864 C   0  0  0  0  0  0  0  0  0  0  0  0
   -0.4044   -0.7275   -1.3733 C   0  0  0  0  0  0  0  0  0  0  0  0
    0.9903   -0.6916   -1.3625 C   0  0  0  0  0  0  0  0  0  0  0  0
    1.6776    0.0095   -0.3588 C   0  0  0  0  0  0  0  0  0  0  0  0
    0.9397    0.6817    0.6314 C   0  0  0  0  0  0  0  0  0  0  0  0
  1  2  1  0
  2  3  4  0
  3  4  4  0
  4  5  4  0
  5  6  4  0
  6  7  4  0
  7  2  4  0
M  END
$$$$

     RDKit          3D

  7  7  0  0  0  0  0  0  0  0999 V2000
   -0.8486   -1.8434   -1.4919 C   0  0  0  0  0  0  0  0  0  0  0  0
   -0.3100   -0.7950   -0.5543 C   0  0  0  0  0  0  0  0  0  0  0  0
   -1.1771    0.0641    0.1574 C   0  0  0  0  0  0  0  0  0  0  0  0
   -0.6418    1.0246    1.0262 C   0  0  0  0  0  0  0  0  0  0  0  0
    0.7383    1.1337    1.1989 C   0  0  0  0  0  0  0  0  0  0  0  0
    1.6130    0.2798    0.5080 C   0  0  0  0  0  0  0  0  0  0  0  0
    1.0778   -0.6850   -0.3635 C   0  0  0  0  0  0  0  0  0  0  0  0
  1  2  1  0
  2  3  4  0
  3  4  4  0
  4  5  4  0
  5  6  4  0
  6  7  4  0
  7  2  4  0
M  END
$$$$

     RDKit          3D

  7  7  0  0  0  0  0  0  0  0999 V2000
    1.2295    2.1582    1.2813 C   0  0  0  0  0  0  0  0  0  0  0  0
    0.4692    0.9986    0.6933 C   0  0  0  0  0  0  0  0  0  0  0  0
    1.1439   -0.1072    0.1291 C   0  0  0  0  0  0  0  0  0  0  0  0
    0.4047   -1.1666   -0.4143 C   0  0  0  0  0  0  0  0  0  0  0  0
   -0.9901   -1.1339   -0.4093 C   0  0  0  0  0  0  0  0  0  0  0  0
   -1.6756   -0.0366    0.1363 C   0  0  0  0  0  0  0  0  0  0  0  0
   -0.9357    1.0272    0.6820 C   0  0  0  0  0  0  0  0  0  0  0  0
  1  2  1  0
  2  3  4  0
  3  4  4  0
  4  5  4  0
  5  6  4  0
  6  7  4  0
  7  2  4  0
M  END
$$$$

     RDKit          3D

  7  7  0  0  0  0  0  0  0  0999 V2000
    1.1039    2.2945   -0.3190 C   0  0  0  0  0  0  0  0  0  0  0  0
    0.4111    0.9576   -0.2832 C   0  0  0  0  0  0  0  0  0  0  0  0
    1.1479   -0.2482   -0.2844 C   0  0  0  0  0  0  0  0  0  0  0  0
    0.4701   -1.4745   -0.2557 C   0  0  0  0  0  0  0  0  0  0  0  0
   -0.9240   -1.5134   -0.2172 C   0  0  0  0  0  0  0  0  0  0  0  0
   -1.6703   -0.3242   -0.2003 C   0  0  0  0  0  0  0  0  0  0  0  0
   -0.9922    0.9072   -0.2305 C   0  0  0  0  0  0  0  0  0  0  0  0
  1  2  1  0
  2  3  4  0
  3  4  4  0
  4  5  4  0
  5  6  4  0
  6  7  4  0
  7  2  4  0
M  END
$$$$

     RDKit          3D

  7  7  0  0  0  0  0  0  0  0999 V2000
   -0.9239   -2.1464    1.0317 C   0  0  0  0  0  0  0  0  0  0  0  0
   -0.3423   -0.9097    0.3988 C   0  0  0  0  0  0  0  0  0  0  0  0
   -1.1740    0.1292   -0.0765 C   0  0  0  0  0  0  0  0  0  0  0  0
   -0.5982    1.2637   -0.6643 C   0  0  0  0  0  0  0  0  0  0  0  0
    0.7870    1.3709   -0.7914 C   0  0  0  0  0  0  0  0  0  0  0  0
    1.6265    0.3418   -0.3358 C   0  0  0  0  0  0  0  0  0  0  0  0
    1.0508   -0.7973    0.2541 C   0  0  0  0  0  0  0  0  0  0  0  0
  1  2  1  0
  2  3  4  0
  3  4  4  0
  4  5  4  0
  5  6  4  0
  6  7  4  0
  7  2  4  0
M  END
$$$$

     RDKit          3D

  7  7  0  0  0  0  0  0  0  0999 V2000
   -1.2276    2.2215    0.0857 C   0  0  0  0  0  0  0  0  0  0  0  0
   -0.4694    0.9230   -0.0015 C   0  0  0  0  0  0  0  0  0  0  0  0
   -1.1426   -0.3055   -0.1858 C   0  0  0  0  0  0  0  0  0  0  0  0
   -0.4060   -1.4956   -0.2568 C   0  0  0  0  0  0  0  0  0  0  0  0
    0.9841   -1.4772   -0.1396 C   0  0  0  0  0  0  0  0  0  0  0  0
    1.6671   -0.2659    0.0553 C   0  0  0  0  0  0  0  0  0  0  0  0
    0.9298    0.9291    0.1276 C   0  0  0  0  0  0  0  0  0  0  0  0
  1  2  1  0
  2  3  4  0
  3  4  4  0
  4  5  4  0
  5  6  4  0
  6  7  4  0
  7  2  4  0
M  END
$$$$

     RDKit          3D

  7  7  0  0  0  0  0  0  0  0999 V2000
    1.3511   -0.0554    2.3988 C   0  0  0  0  0  0  0  0  0  0  0  0
    0.5321   -0.0756    1.1350 C   0  0  0  0  0  0  0  0  0  0  0  0
    1.1462   -0.0034   -0.1357 C   0  0  0  0  0  0  0  0  0  0  0  0
    0.3527   -0.0201   -1.2907 C   0  0  0  0  0  0  0  0  0  0  0  0
   -1.0359   -0.1157   -1.1958 C   0  0  0  0  0  0  0  0  0  0  0  0
   -1.6605   -0.2025    0.0587 C   0  0  0  0  0  0  0  0  0  0  0  0
   -0.8663   -0.1855    1.2188 C   0  0  0  0  0  0  0  0  0  0  0  0
  1  2  1  0
  2  3  4  0
  3  4  4  0
  4  5  4  0
  5  6  4  0
  6  7  4  0
  7  2  4  0
M  END
$$$$

     RDKit          3D

  7  7  0  0  0  0  0  0  0  0999 V2000
    1.2651   -0.7430   -2.3775 C   0  0  0  0  0  0  0  0  0  0  0  0
    0.4908   -0.4050   -1.1306 C   0  0  0  0  0  0  0  0  0  0  0  0
    1.1486    0.0149    0.0475 C   0  0  0  0  0  0  0  0  0  0  0  0
    0.3960    0.3257    1.1880 C   0  0  0  0  0  0  0  0  0  0  0  0
   -0.9947    0.2160    1.1717 C   0  0  0  0  0  0  0  0  0  0  0  0
   -1.6624   -0.2133    0.0134 C   0  0  0  0  0  0  0  0  0  0  0  0
   -0.9093   -0.5253   -1.1321 C   0  0  0  0  0  0  0  0  0  0  0  0
  1  2  1  0
  2  3  4  0
  3  4  4  0
  4  5  4  0
  5  6  4  0
  6  7  4  0
  7  2  4  0
M  END
$$$$

     RDKit          3D

  7  7  0  0  0  0  0  0  0  0999 V2000
    1.1357   -1.8062   -1.5631 C   0  0  0  0  0  0  0  0  0  0  0  0
    0.4333   -0.6929   -0.8312 C   0  0  0  0  0  0  0  0  0  0  0  0
    1.1595    0.2673   -0.0915 C   0  0  0  0  0  0  0  0  0  0  0  0
    0.4743    1.2925    0.5743 C   0  0  0  0  0  0  0  0  0  0  0  0
   -0.9177    1.3676    0.5185 C   0  0  0  0  0  0  0  0  0  0  0  0
   -1.6549    0.4133   -0.2008 C   0  0  0  0  0  0  0  0  0  0  0  0
   -0.9692   -0.6156   -0.8703 C   0  0  0  0  0  0  0  0  0  0  0  0
  1  2  1  0
  2  3  4  0
  3  4  4  0
  4  5  4  0
  5  6  4  0
  6  7  4  0
  7  2  4  0
M  END
$$$$

     RDKit          3D

  7  7  0  0  0  0  0  0  0  0999 V2000
   -1.4318   -2.2198    0.9345 C   0  0  0  0  0  0  0  0  0  0  0  0
   -0.5601   -1.1216    0.3845 C   0  0  0  0  0  0  0  0  0  0  0  0
   -1.1187   -0.0168   -0.2965 C   0  0  0  0  0  0  0  0  0  0  0  0
   -0.2784    0.9899   -0.7907 C   0  0  0  0  0  0  0  0  0  0  0  0
    1.1027    0.9134   -0.6087 C   0  0  0  0  0  0  0  0  0  0  0  0
    1.6725   -0.1716    0.0767 C   0  0  0  0  0  0  0  0  0  0  0  0
    0.8310   -1.1827    0.5731 C   0  0  0  0  0  0  0  0  0  0  0  0
  1  2  1  0
  2  3  4  0
  3  4  4  0
  4  5  4  0
  5  6  4  0
  6  7  4  0
  7  2  4  0
M  END
$$$$
