
     RDKit          3D

  6  6  0  0  0  0  0  0  0  0999 V2000
    0.4969   -0.0289   -1.1050 N   0  0  0  0  0  0  0  0  0  0  0  0
   -0.8118   -0.2234   -1.2596 N   0  0  0  0  0  0  0  0  0  0  0  0
   -1.6308   -0.2816   -0.1798 C   0  0  0  0  0  0  0  0  0  0  0  0
   -1.0969   -0.1393    1.0588 N   0  0  0  0  0  0  0  0  0  0  0  0
    0.2114    0.0579    1.2117 N   0  0  0  0  0  0  0  0  0  0  0  0
    1.0369    0.1035    0.1348 C   0  0  0  0  0  0  0  0  0  0  0  0
  1  2  4  0
  2  3  4  0
  3  4  4  0
  4  5  4  0
  5  6  4  0
  6  1  4  0
M  END
$$$$

     RDKit          3D

  6  6  0  0  0  0  0  0  0  0999 V2000
   -0.3943    0.4260   -0.7086 N   0  0  0  0  0  0  0  0  0  0  0  0
    0.9346    0.5135   -0.7220 N   0  0  0  0  0  0  0  0  0  0  0  0
    1.6638    0.0705    0.3332 C   0  0  0  0  0  0  0  0  0  0  0  0
    1.0201   -0.4745    1.3970 N   0  0  0  0  0  0  0  0  0  0  0  0
   -0.3092   -0.5574    1.4112 N   0  0  0  0  0  0  0  0  0  0  0  0
   -1.0425   -0.0888    0.3681 C   0  0  0  0  0  0  0  0  0  0  0  0
  1  2  4  0
  2  3  4  0
  3  4  4  0
  4  5  4  0
  5  6  4  0
  6  1  4  0
M  END
$$$$

     RDKit          3D

  6  6  0  0  0  0  0  0  0  0999 V2000
    0.3831    0.4583    1.3949 N   0  0  0  0  0  0  0  0  0  0  0  0
   -0.9457    0.3797    1.4436 N   0  0  0  0  0  0  0  0  0  0  0  0
   -1.6266   -0.3516    0.5276 C   0  0  0  0  0  0  0  0  0  0  0  0
   -0.9332   -1.0149   -0.4308 N   0  0  0  0  0  0  0  0  0  0  0  0
    0.3949   -0.9331   -0.4821 N   0  0  0  0  0  0  0  0  0  0  0  0
    1.0757   -0.1812    0.4192 C   0  0  0  0  0  0  0  0  0  0  0  0
  1  2  4  0
  2  3  4  0
  3  4  4  0
  4  5  4  0
  5  6  4  0
  6  1  4  0
M  END
$$$$

     RDKit          3D

  6  6  0  0  0  0  0  0  0  0999 V2000
    0.3121   -1.4160    0.0587 N   0  0  0  0  0  0  0  0  0  0  0  0
   -0.9960   -1.3690    0.3055 N   0  0  0  0  0  0  0  0  0  0  0  0
   -1.6008   -0.1902    0.5929 C   0  0  0  0  0  0  0  0  0  0  0  0
   -0.8488    0.9373    0.6418 N   0  0  0  0  0  0  0  0  0  0  0  0
    0.4599    0.8884    0.4006 N   0  0  0  0  0  0  0  0  0  0  0  0
    1.0653   -0.2858    0.0882 C   0  0  0  0  0  0  0  0  0  0  0  0
  1  2  4  0
  2  3  4  0
  3  4  4  0
  4  5  4  0
  5  6  4  0
  6  1  4  0
M  END
$$$$

     RDKit          3D

  6  6  0  0  0  0  0  0  0  0999 V2000
   -0.4937    0.4985   -0.8384 N   0  0  0  0  0  0  0  0  0  0  0  0
    0.8208    0.6777   -0.9528 N   0  0  0  0  0  0  0  0  0  0  0  0
    1.6368    0.4983    0.1149 C   0  0  0  0  0  0  0  0  0  0  0  0
    1.0890    0.1503    1.3060 N   0  0  0  0  0  0  0  0  0  0  0  0
   -0.2253   -0.0352    1.4180 N   0  0  0  0  0  0  0  0  0  0  0  0
   -1.0431    0.1211    0.3442 C   0  0  0  0  0  0  0  0  0  0  0  0
  1  2  4  0
  2  3  4  0
  3  4  4  0
  4  5  4  0
  5  6  4  0
  6  1  4  0
M  END
$$$$

     RDKit          3D

  6  6  0  0  0  0  0  0  0  0999 V2000
   -0.3868   -1.1060   -0.0234 N   0  0  0  0  0  0  0  0  0  0  0  0
    0.9321   -1.1147    0.1591 N   0  0  0  0  0  0  0  0  0  0  0  0
    1.6309    0.0461    0.1994 C   0  0  0  0  0  0  0  0  0  0  0  0
    0.9615    1.2169    0.0538 N   0  0  0  0  0  0  0  0  0  0  0  0
   -0.3589    1.2254   -0.1203 N   0  0  0  0  0  0  0  0  0  0  0  0
   -1.0629    0.0631   -0.1492 C   0  0  0  0  0  0  0  0  0  0  0  0
  1  2  4  0
  2  3  4  0
  3  4  4  0
  4  5  4  0
  5  6  4  0
  6  1  4  0
M  END
$$$$

     RDKit          3D

  6  6  0  0  0  0  0  0  0  0999 V2000
    0.4428    0.9647    0.5831 N   0  0  0  0  0  0  0  0  0  0  0  0
   -0.8818    1.0703    0.6741 N   0  0  0  0  0  0  0  0  0  0  0  0
   -1.6879    0.2720   -0.0686 C   0  0  0  0  0  0  0  0  0  0  0  0
   -1.1250   -0.6264   -0.9150 N   0  0  0  0  0  0  0  0  0  0  0  0
    0.1997   -0.7333   -1.0026 N   0  0  0  0  0  0  0  0  0  0  0  0
    1.0106    0.0498   -0.2436 C   0  0  0  0  0  0  0  0  0  0  0  0
  1  2  4  0
  2  3  4  0
  3  4  4  0
  4  5  4  0
  5  6  4  0
  6  1  4  0
M  END
$$$$

     RDKit          3D

  6  6  0  0  0  0  0  0  0  0999 V2000
   -0.3137   -0.8750    0.7091 N   0  0  0  0  0  0  0  0  0  0  0  0
    1.0169   -0.8684    0.6484 N   0  0  0  0  0  0  0  0  0  0  0  0
    1.6874    0.2797    0.3774 C   0  0  0  0  0  0  0  0  0  0  0  0
    0.9834    1.4224    0.1833 N   0  0  0  0  0  0  0  0  0  0  0  0
   -0.3466    1.4152    0.2468 N   0  0  0  0  0  0  0  0  0  0  0  0
   -1.0228    0.2640    0.4944 C   0  0  0  0  0  0  0  0  0  0  0  0
  1  2  4  0
  2  3  4  0
  3  4  4  0
  4  5  4  0
  5  6  4  0
  6  1  4  0
M  END
$$$$

     RDKit          3D

  6  6  0  0  0  0  0  0  0  0999 V2000
   -0.3333    0.2437   -1.3459 N   0  0  0  0  0  0  0  0  0  0  0  0
    0.9982    0.2234   -1.3496 N   0  0  0  0  0  0  0  0  0  0  0  0
    1.6832   -0.1883   -0.2539 C   0  0  0  0  0  0  0  0  0  0  0  0
    0.9916   -0.5760    0.8463 N   0  0  0  0  0  0  0  0  0  0  0  0
   -0.3400   -0.5465    0.8505 N   0  0  0  0  0  0  0  0  0  0  0  0
   -1.0326   -0.1525   -0.2490 C   0  0  0  0  0  0  0  0  0  0  0  0
  1  2  4  0
  2  3  4  0
  3  4  4  0
  4  5  4  0
  5  6  4  0
  6  1  4  0
M  END
$$$$

     RDKit          3D

  6  6  0  0  0  0  0  0  0  0999 V2000
   -0.3707   -0.6395   -1.1378 N   0  0  0  0  0  0  0  0  0  0  0  0
    0.9476   -0.4944   -1.2573 N   0  0  0  0  0  0  0  0  0  0  0  0
    1.6085    0.4223   -0.5076 C   0  0  0  0  0  0  0  0  0  0  0  0
    0.9011    1.2053    0.3482 N   0  0  0  0  0  0  0  0  0  0  0  0
   -0.4192    1.0663    0.4577 N   0  0  0  0  0  0  0  0  0  0  0  0
   -1.0762    0.1211   -0.2594 C   0  0  0  0  0  0  0  0  0  0  0  0
  1  2  4  0
  2  3  4  0
  3  4  4  0
  4  5  4  0
  5  6  4  0
  6  1  4  0
M  END
$$$$

     RDKit          3D

  6  6  0  0  0  0  0  0  0  0999 V2000
   -0.3373   -0.7605   -0.1170 N   0  0  0  0  0  0  0  0  0  0  0  0
    0.9898   -0.7010   -0.2102 N   0  0  0  0  0  0  0  0  0  0  0  0
    1.5981    0.4234   -0.6619 C   0  0  0  0  0  0  0  0  0  0  0  0
    0.8347    1.4841   -1.0263 N   0  0  0  0  0  0  0  0  0  0  0  0
   -0.4933    1.4200   -0.9409 N   0  0  0  0  0  0  0  0  0  0  0  0
   -1.1081    0.2923   -0.4942 C   0  0  0  0  0  0  0  0  0  0  0  0
  1  2  4  0
  2  3  4  0
  3  4  4  0
  4  5  4  0
  5  6  4  0
  6  1  4  0
M  END
$$$$

     RDKit          3D

  6  6  0  0  0  0  0  0  0  0999 V2000
   -0.5108    0.9808    1.1117 N   0  0  0  0  0  0  0  0  0  0  0  0
    0.8118    1.1119    1.1973 N   0  0  0  0  0  0  0  0  0  0  0  0
    1.6330    0.2479    0.5474 C   0  0  0  0  0  0  0  0  0  0  0  0
    1.0855   -0.7411   -0.2008 N   0  0  0  0  0  0  0  0  0  0  0  0
   -0.2374   -0.8708   -0.2880 N   0  0  0  0  0  0  0  0  0  0  0  0
   -1.0589   -0.0055    0.3577 C   0  0  0  0  0  0  0  0  0  0  0  0
  1  2  4  0
  2  3  4  0
  3  4  4  0
  4  5  4  0
  5  6  4  0
  6  1  4  0
M  END
$$$$

     RDKit          3D

  6  6  0  0  0  0  0  0  0  0999 V2000
   -0.4528    0.8478   -0.6550 N   0  0  0  0  0  0  0  0  0  0  0  0
    0.8516    1.1139   -0.6059 N   0  0  0  0  0  0  0  0  0  0  0  0
    1.6640    0.4187    0.2289 C   0  0  0  0  0  0  0  0  0  0  0  0
    1.1259   -0.5417    1.0209 N   0  0  0  0  0  0  0  0  0  0  0  0
   -0.1777   -0.8084    0.9662 N   0  0  0  0  0  0  0  0  0  0  0  0
   -0.9940   -0.1304    0.1145 C   0  0  0  0  0  0  0  0  0  0  0  0
  1  2  4  0
  2  3  4  0
  3  4  4  0
  4  5  4  0
  5  6  4  0
  6  1  4  0
M  END
$$$$

     RDKit          3D

  6  6  0  0  0  0  0  0  0  0999 V2000
   -0.4011   -0.8402   -0.7482 N   0  0  0  0  0  0  0  0  0  0  0  0
    0.9092   -1.0314   -0.6042 N   0  0  0  0  0  0  0  0  0  0  0  0
    1.6247   -0.2660    0.2577 C   0  0  0  0  0  0  0  0  0  0  0  0
    0.9886    0.6991    0.9668 N   0  0  0  0  0  0  0  0  0  0  0  0
   -0.3217    0.8891    0.8237 N   0  0  0  0  0  0  0  0  0  0  0  0
   -1.0432    0.1110   -0.0229 C   0  0  0  0  0  0  0  0  0  0  0  0
  1  2  4  0
  2  3  4  0
  3  4  4  0
  4  5  4  0
  5  6  4  0
  6  1  4  0
M  END
$$$$

     RDKit          3D

  6  6  0  0  0  0  0  0  0  0999 V2000
   -0.3815   -1.0567   -0.5009 N   0  0  0  0  0  0  0  0  0  0  0  0
    0.9472   -1.1329   -0.4749 N   0  0  0  0  0  0  0  0  0  0  0  0
    1.6601   -0.3985    0.4125 C   0  0  0  0  0  0  0  0  0  0  0  0
    0.9936    0.4001    1.2871 N   0  0  0  0  0  0  0  0  0  0  0  0
   -0.3370    0.4605    1.2704 N   0  0  0  0  0  0  0  0  0  0  0  0
   -1.0557   -0.2501    0.3633 C   0  0  0  0  0  0  0  0  0  0  0  0
  1  2  4  0
  2  3  4  0
  3  4  4  0
  4  5  4  0
  5  6  4  0
  6  1  4  0
M  END
$$$$

     RDKit          3D

  6  6  0  0  0  0  0  0  0  0999 V2000
   -0.5989    0.8734   -0.5970 N   0  0  0  0  0  0  0  0  0  0  0  0
    0.6927    1.1948   -0.6217 N   0  0  0  0  0  0  0  0  0  0  0  0
    1.5990    0.4585    0.0684 C   0  0  0  0  0  0  0  0  0  0  0  0
    1.1656   -0.6023    0.7925 N   0  0  0  0  0  0  0  0  0  0  0  0
   -0.1255   -0.9267    0.8129 N   0  0  0  0  0  0  0  0  0  0  0  0
   -1.0331   -0.2002    0.1130 C   0  0  0  0  0  0  0  0  0  0  0  0
  1  2  4  0
  2  3  4  0
  3  4  4  0
  4  5  4  0
  5  6  4  0
  6  1  4  0
M  END
$$$$

     RDKit          3D

  6  6  0  0  0  0  0  0  0  0999 V2000
    0.3961    0.0706   -1.4981 N   0  0  0  0  0  0  0  0  0  0  0  0
   -0.9354    0.0424   -1.4912 N   0  0  0  0  0  0  0  0  0  0  0  0
   -1.6252    0.4008   -0.3795 C   0  0  0  0  0  0  0  0  0  0  0  0
   -0.9392    0.8063    0.7193 N   0  0  0  0  0  0  0  0  0  0  0  0
    0.3925    0.8280    0.7134 N   0  0  0  0  0  0  0  0  0  0  0  0
    1.0879    0.4485   -0.3915 C   0  0  0  0  0  0  0  0  0  0  0  0
  1  2  4  0
  2  3  4  0
  3  4  4  0
  4  5  4  0
  5  6  4  0
  6  1  4  0
M  END
$$$$

     RDKit          3D

  6  6  0  0  0  0  0  0  0  0999 V2000
    0.4541   -0.8446    0.8562 N   0  0  0  0  0  0  0  0  0  0  0  0
   -0.8723   -0.9274    0.9292 N   0  0  0  0  0  0  0  0  0  0  0  0
   -1.6483    0.1260    0.5746 C   0  0  0  0  0  0  0  0  0  0  0  0
   -1.0535    1.2743    0.1665 N   0  0  0  0  0  0  0  0  0  0  0  0
    0.2746    1.3563    0.0941 N   0  0  0  0  0  0  0  0  0  0  0  0
    1.0536    0.2934    0.4203 C   0  0  0  0  0  0  0  0  0  0  0  0
  1  2  4  0
  2  3  4  0
  3  4  4  0
  4  5  4  0
  5  6  4  0
  6  1  4  0
M  END
$$$$

     RDKit          3D

  6  6  0  0  0  0  0  0  0  0999 V2000
   -0.4373    1.0751   -0.5174 N   0  0  0  0  0  0  0  0  0  0  0  0
    0.8710    1.0437   -0.7636 N   0  0  0  0  0  0  0  0  0  0  0  0
    1.5813   -0.0945   -0.5643 C   0  0  0  0  0  0  0  0  0  0  0  0
    0.9317   -1.2055   -0.1367 N   0  0  0  0  0  0  0  0  0  0  0  0
   -0.3786   -1.1738    0.0995 N   0  0  0  0  0  0  0  0  0  0  0  0
   -1.0902   -0.0289   -0.0650 C   0  0  0  0  0  0  0  0  0  0  0  0
  1  2  4  0
  2  3  4  0
  3  4  4  0
  4  5  4  0
  5  6  4  0
  6  1  4  0
M  END
$$$$

     RDKit          3D

  6  6  0  0  0  0  0  0  0  0999 V2000
   -0.2921    0.6255    0.3066 N   0  0  0  0  0  0  0  0  0  0  0  0
    1.0270    0.4443    0.3009 N   0  0  0  0  0  0  0  0  0  0  0  0
    1.5909   -0.4786   -0.5179 C   0  0  0  0  0  0  0  0  0  0  0  0
    0.7910   -1.2196   -1.3253 N   0  0  0  0  0  0  0  0  0  0  0  0
   -0.5292   -1.0384   -1.3178 N   0  0  0  0  0  0  0  0  0  0  0  0
   -1.0959   -0.1075   -0.5073 C   0  0  0  0  0  0  0  0  0  0  0  0
  1  2  4  0
  2  3  4  0
  3  4  4  0
  4  5  4  0
  5  6  4  0
  6  1  4  0
M  END
$$$$

     RDKit          3D

  6  6  0  0  0  0  0  0  0  0999 V2000
    0.7289   -0.8872    0.5513 N   0  0  0  0  0  0  0  0  0  0  0  0
   -0.5913   -1.0346    0.4554 N   0  0  0  0  0  0  0  0  0  0  0  0
   -1.3442   -0.1240   -0.2126 C   0  0  0  0  0  0  0  0  0  0  0  0
   -0.7248    0.9507   -0.7655 N   0  0  0  0  0  0  0  0  0  0  0  0
    0.5955    1.0982   -0.6696 N   0  0  0  0  0  0  0  0  0  0  0  0
    1.3483    0.1875   -0.0015 C   0  0  0  0  0  0  0  0  0  0  0  0
  1  2  4  0
  2  3  4  0
  3  4  4  0
  4  5  4  0
  5  6  4  0
  6  1  4  0
M  END
$$$$

     RDKit          3D

  6  6  0  0  0  0  0  0  0  0999 V2000
   -0.6410   -0.0276   -1.1915 N   0  0  0  0  0  0  0  0  0  0  0  0
    0.6843    0.0890   -1.1310 N   0  0  0  0  0  0  0  0  0  0  0  0
    1.3037    0.3558    0.0468 C   0  0  0  0  0  0  0  0  0  0  0  0
    0.5462    0.4679    1.1685 N   0  0  0  0  0  0  0  0  0  0  0  0
   -0.7794    0.3518    1.1077 N   0  0  0  0  0  0  0  0  0  0  0  0
   -1.4009    0.1187   -0.0771 C   0  0  0  0  0  0  0  0  0  0  0  0
  1  2  4  0
  2  3  4  0
  3  4  4  0
  4  5  4  0
  5  6  4  0
  6  1  4  0
M  END
$$$$

     RDKit          3D

  6  6  0  0  0  0  0  0  0  0999 V2000
   -0.4405    0.2935   -1.0294 N   0  0  0  0  0  0  0  0  0  0  0  0
    0.8679    0.1705   -0.8134 N   0  0  0  0  0  0  0  0  0  0  0  0
    1.3484   -0.0119    0.4435 C   0  0  0  0  0  0  0  0  0  0  0  0
    0.4695   -0.0460    1.4767 N   0  0  0  0  0  0  0  0  0  0  0  0
   -0.8391    0.0770    1.2608 N   0  0  0  0  0  0  0  0  0  0  0  0
   -1.3202    0.2581    0.0037 C   0  0  0  0  0  0  0  0  0  0  0  0
  1  2  4  0
  2  3  4  0
  3  4  4  0
  4  5  4  0
  5  6  4  0
  6  1  4  0
M  END
$$$$

     RDKit          3D

  6  6  0  0  0  0  0  0  0  0999 V2000
   -0.3611   -0.0609   -1.1036 N   0  0  0  0  0  0  0  0  0  0  0  0
    0.9276   -0.0846   -0.7679 N   0  0  0  0  0  0  0  0  0  0  0  0
    1.3027   -0.1719    0.5341 C   0  0  0  0  0  0  0  0  0  0  0  0
    0.3378   -0.2549    1.4845 N   0  0  0  0  0  0  0  0  0  0  0  0
   -0.9510   -0.2311    1.1489 N   0  0  0  0  0  0  0  0  0  0  0  0
   -1.3267   -0.1424   -0.1532 C   0  0  0  0  0  0  0  0  0  0  0  0
  1  2  4  0
  2  3  4  0
  3  4  4  0
  4  5  4  0
  5  6  4  0
  6  1  4  0
M  END
$$$$

     RDKit          3D

  6  6  0  0  0  0  0  0  0  0999 V2000
   -0.7962    1.2104    0.7508 N   0  0  0  0  0  0  0  0  0  0  0  0
    0.5216    1.3996    0.7087 N   0  0  0  0  0  0  0  0  0  0  0  0
    1.3522    0.4025    0.3124 C   0  0  0  0  0  0  0  0  0  0  0  0
    0.8139   -0.7988   -0.0207 N   0  0  0  0  0  0  0  0  0  0  0  0
   -0.5038   -0.9881    0.0218 N   0  0  0  0  0  0  0  0  0  0  0  0
   -1.3352    0.0093    0.4169 C   0  0  0  0  0  0  0  0  0  0  0  0
  1  2  4  0
  2  3  4  0
  3  4  4  0
  4  5  4  0
  5  6  4  0
  6  1  4  0
M  END
$$$$

     RDKit          3D

  6  6  0  0  0  0  0  0  0  0999 V2000
    0.6099    1.1583   -0.8892 N   0  0  0  0  0  0  0  0  0  0  0  0
   -0.7157    1.1891   -0.7652 N   0  0  0  0  0  0  0  0  0  0  0  0
   -1.3671    0.2344   -0.0546 C   0  0  0  0  0  0  0  0  0  0  0  0
   -0.6435   -0.7743    0.4959 N   0  0  0  0  0  0  0  0  0  0  0  0
    0.6824   -0.8052    0.3718 N   0  0  0  0  0  0  0  0  0  0  0  0
    1.3370    0.1715   -0.3075 C   0  0  0  0  0  0  0  0  0  0  0  0
  1  2  4  0
  2  3  4  0
  3  4  4  0
  4  5  4  0
  5  6  4  0
  6  1  4  0
M  END
$$$$

     RDKit          3D

  6  6  0  0  0  0  0  0  0  0999 V2000
    0.8203    0.0176    1.0825 N   0  0  0  0  0  0  0  0  0  0  0  0
   -0.4968   -0.0582    1.2660 N   0  0  0  0  0  0  0  0  0  0  0  0
   -1.3431   -0.0885    0.2058 C   0  0  0  0  0  0  0  0  0  0  0  0
   -0.8208   -0.0207   -1.0458 N   0  0  0  0  0  0  0  0  0  0  0  0
    0.4963    0.0550   -1.2292 N   0  0  0  0  0  0  0  0  0  0  0  0
    1.3427    0.0853   -0.1691 C   0  0  0  0  0  0  0  0  0  0  0  0
  1  2  4  0
  2  3  4  0
  3  4  4  0
  4  5  4  0
  5  6  4  0
  6  1  4  0
M  END
$$$$

     RDKit          3D

  6  6  0  0  0  0  0  0  0  0999 V2000
    0.3758    0.0505    1.2434 N   0  0  0  0  0  0  0  0  0  0  0  0
   -0.9190    0.0781    0.9322 N   0  0  0  0  0  0  0  0  0  0  0  0
   -1.3219    0.0116   -0.3627 C   0  0  0  0  0  0  0  0  0  0  0  0
   -0.3778   -0.0650   -1.3341 N   0  0  0  0  0  0  0  0  0  0  0  0
    0.9171   -0.0933   -1.0231 N   0  0  0  0  0  0  0  0  0  0  0  0
    1.3200   -0.0265    0.2719 C   0  0  0  0  0  0  0  0  0  0  0  0
  1  2  4  0
  2  3  4  0
  3  4  4  0
  4  5  4  0
  5  6  4  0
  6  1  4  0
M  END
$$$$

     RDKit          3D

  6  6  0  0  0  0  0  0  0  0999 V2000
   -0.6561    0.1534   -0.9761 N   0  0  0  0  0  0  0  0  0  0  0  0
    0.6739    0.2282   -0.9404 N   0  0  0  0  0  0  0  0  0  0  0  0
    1.3433    0.0637    0.2279 C   0  0  0  0  0  0  0  0  0  0  0  0
    0.6313   -0.1456    1.3641 N   0  0  0  0  0  0  0  0  0  0  0  0
   -0.6984   -0.2201    1.3283 N   0  0  0  0  0  0  0  0  0  0  0  0
   -1.3673   -0.0887    0.1550 C   0  0  0  0  0  0  0  0  0  0  0  0
  1  2  4  0
  2  3  4  0
  3  4  4  0
  4  5  4  0
  5  6  4  0
  6  1  4  0
M  END
$$$$

     RDKit          3D

  6  6  0  0  0  0  0  0  0  0999 V2000
    0.6642   -1.3413    0.3098 N   0  0  0  0  0  0  0  0  0  0  0  0
   -0.6629   -1.3570    0.2048 N   0  0  0  0  0  0  0  0  0  0  0  0
   -1.3431   -0.2433   -0.1676 C   0  0  0  0  0  0  0  0  0  0  0  0
   -0.6439    0.9007   -0.3951 N   0  0  0  0  0  0  0  0  0  0  0  0
    0.6841    0.9178   -0.2887 N   0  0  0  0  0  0  0  0  0  0  0  0
    1.3646   -0.2087    0.0471 C   0  0  0  0  0  0  0  0  0  0  0  0
  1  2  4  0
  2  3  4  0
  3  4  4  0
  4  5  4  0
  5  6  4  0
  6  1  4  0
M  END
$$$$

     RDKit          3D

  6  6  0  0  0  0  0  0  0  0999 V2000
    0.7749   -0.6778   -0.8685 N   0  0  0  0  0  0  0  0  0  0  0  0
   -0.5445   -0.6127   -1.0369 N   0  0  0  0  0  0  0  0  0  0  0  0
   -1.3540   -0.2172   -0.0216 C   0  0  0  0  0  0  0  0  0  0  0  0
   -0.7876    0.1539    1.1535 N   0  0  0  0  0  0  0  0  0  0  0  0
    0.5327    0.0915    1.3201 N   0  0  0  0  0  0  0  0  0  0  0  0
    1.3387   -0.3439    0.3178 C   0  0  0  0  0  0  0  0  0  0  0  0
  1  2  4  0
  2  3  4  0
  3  4  4  0
  4  5  4  0
  5  6  4  0
  6  1  4  0
M  END
$$$$

     RDKit          3D

  6  6  0  0  0  0  0  0  0  0999 V2000
    0.5971    1.1088   -0.7388 N   0  0  0  0  0  0  0  0  0  0  0  0
   -0.7319    1.0399   -0.7764 N   0  0  0  0  0  0  0  0  0  0  0  0
   -1.3935    0.0335   -0.1497 C   0  0  0  0  0  0  0  0  0  0  0  0
   -0.6703   -0.8775    0.5521 N   0  0  0  0  0  0  0  0  0  0  0  0
    0.6601   -0.8093    0.5916 N   0  0  0  0  0  0  0  0  0  0  0  0
    1.3193    0.1735   -0.0708 C   0  0  0  0  0  0  0  0  0  0  0  0
  1  2  4  0
  2  3  4  0
  3  4  4  0
  4  5  4  0
  5  6  4  0
  6  1  4  0
M  END
$$$$

     RDKit          3D

  6  6  0  0  0  0  0  0  0  0999 V2000
    0.6904    0.4672   -0.5916 N   0  0  0  0  0  0  0  0  0  0  0  0
   -0.6331    0.5693   -0.4737 N   0  0  0  0  0  0  0  0  0  0  0  0
   -1.2991   -0.1548    0.4615 C   0  0  0  0  0  0  0  0  0  0  0  0
   -0.5895   -0.9610    1.2947 N   0  0  0  0  0  0  0  0  0  0  0  0
    0.7329   -1.0633    1.1713 N   0  0  0  0  0  0  0  0  0  0  0  0
    1.3955   -0.3642    0.2168 C   0  0  0  0  0  0  0  0  0  0  0  0
  1  2  4  0
  2  3  4  0
  3  4  4  0
  4  5  4  0
  5  6  4  0
  6  1  4  0
M  END
$$$$

     RDKit          3D

  6  6  0  0  0  0  0  0  0  0999 V2000
   -0.7572   -1.1866   -0.3147 N   0  0  0  0  0  0  0  0  0  0  0  0
    0.5725   -1.2364   -0.3766 N   0  0  0  0  0  0  0  0  0  0  0  0
    1.3224   -0.1458   -0.0703 C   0  0  0  0  0  0  0  0  0  0  0  0
    0.6871    1.0078    0.2604 N   0  0  0  0  0  0  0  0  0  0  0  0
   -0.6427    1.0577    0.3223 N   0  0  0  0  0  0  0  0  0  0  0  0
   -1.3905   -0.0437    0.0553 C   0  0  0  0  0  0  0  0  0  0  0  0
  1  2  4  0
  2  3  4  0
  3  4  4  0
  4  5  4  0
  5  6  4  0
  6  1  4  0
M  END
$$$$

     RDKit          3D

  6  6  0  0  0  0  0  0  0  0999 V2000
    0.6344    0.7655    0.6314 N   0  0  0  0  0  0  0  0  0  0  0  0
   -0.6921    0.7208    0.5260 N   0  0  0  0  0  0  0  0  0  0  0  0
   -1.3012   -0.3242   -0.0923 C   0  0  0  0  0  0  0  0  0  0  0  0
   -0.5342   -1.3387   -0.5710 N   0  0  0  0  0  0  0  0  0  0  0  0
    0.7923   -1.2923   -0.4651 N   0  0  0  0  0  0  0  0  0  0  0  0
    1.4032   -0.2431    0.1457 C   0  0  0  0  0  0  0  0  0  0  0  0
  1  2  4  0
  2  3  4  0
  3  4  4  0
  4  5  4  0
  5  6  4  0
  6  1  4  0
M  END
$$$$

     RDKit          3D

  6  6  0  0  0  0  0  0  0  0999 V2000
   -0.7638   -0.1428    0.8317 N   0  0  0  0  0  0  0  0  0  0  0  0
    0.5534   -0.2741    0.9797 N   0  0  0  0  0  0  0  0  0  0  0  0
    1.3602   -0.4316   -0.1003 C   0  0  0  0  0  0  0  0  0  0  0  0
    0.7977   -0.4261   -1.3372 N   0  0  0  0  0  0  0  0  0  0  0  0
   -0.5192   -0.2926   -1.4853 N   0  0  0  0  0  0  0  0  0  0  0  0
   -1.3248   -0.1412   -0.4038 C   0  0  0  0  0  0  0  0  0  0  0  0
  1  2  4  0
  2  3  4  0
  3  4  4  0
  4  5  4  0
  5  6  4  0
  6  1  4  0
M  END
$$$$

     RDKit          3D

  6  6  0  0  0  0  0  0  0  0999 V2000
    0.9218   -0.2894   -0.9909 N   0  0  0  0  0  0  0  0  0  0  0  0
   -0.3714   -0.5423   -1.1879 N   0  0  0  0  0  0  0  0  0  0  0  0
   -1.2889   -0.2206   -0.2440 C   0  0  0  0  0  0  0  0  0  0  0  0
   -0.8691    0.3843    0.8960 N   0  0  0  0  0  0  0  0  0  0  0  0
    0.4243    0.6356    1.0931 N   0  0  0  0  0  0  0  0  0  0  0  0
    1.3436    0.3147    0.1495 C   0  0  0  0  0  0  0  0  0  0  0  0
  1  2  4  0
  2  3  4  0
  3  4  4  0
  4  5  4  0
  5  6  4  0
  6  1  4  0
M  END
$$$$

     RDKit          3D

  6  6  0  0  0  0  0  0  0  0999 V2000
   -0.8488    0.7078   -0.5830 N   0  0  0  0  0  0  0  0  0  0  0  0
    0.4607    0.9507   -0.5656 N   0  0  0  0  0  0  0  0  0  0  0  0
    1.2915    0.2132    0.2125 C   0  0  0  0  0  0  0  0  0  0  0  0
    0.7642   -0.7947    0.9543 N   0  0  0  0  0  0  0  0  0  0  0  0
   -0.5449   -1.0389    0.9363 N   0  0  0  0  0  0  0  0  0  0  0  0
   -1.3765   -0.2977    0.1614 C   0  0  0  0  0  0  0  0  0  0  0  0
  1  2  4  0
  2  3  4  0
  3  4  4  0
  4  5  4  0
  5  6  4  0
  6  1  4  0
M  END
$$$$

     RDKit          3D

  6  6  0  0  0  0  0  0  0  0999 V2000
    0.4443   -0.9722    0.9790 N   0  0  0  0  0  0  0  0  0  0  0  0
   -0.8779   -0.8680    0.8612 N   0  0  0  0  0  0  0  0  0  0  0  0
   -1.4299    0.0677    0.0474 C   0  0  0  0  0  0  0  0  0  0  0  0
   -0.6049    0.8858   -0.6576 N   0  0  0  0  0  0  0  0  0  0  0  0
    0.7184    0.7823   -0.5402 N   0  0  0  0  0  0  0  0  0  0  0  0
    1.2676   -0.1575    0.2725 C   0  0  0  0  0  0  0  0  0  0  0  0
  1  2  4  0
  2  3  4  0
  3  4  4  0
  4  5  4  0
  5  6  4  0
  6  1  4  0
M  END
$$$$
