
     RDKit          3D

  6  6  0  0  0  0  0  0  0  0999 V2000
   -0.2737   -0.8874    0.9091 N   0  0  0  0  0  0  0  0  0  0  0  0
    0.9785   -0.5859    0.5702 N   0  0  0  0  0  0  0  0  0  0  0  0
    1.2373    0.3900   -0.3378 C   0  0  0  0  0  0  0  0  0  0  0  0
    0.1892    1.0660   -0.8762 N   0  0  0  0  0  0  0  0  0  0  0  0
   -1.0630    0.7643   -0.5371 N   0  0  0  0  0  0  0  0  0  0  0  0
   -1.3227   -0.2259    0.3560 C   0  0  0  0  0  0  0  0  0  0  0  0
  1  2  4  0
  2  3  4  0
  3  4  4  0
  4  5  4  0
  5  6  4  0
  6  1  4  0
M  END
$$$$

     RDKit          3D

  6  6  0  0  0  0  0  0  0  0999 V2000
   -0.2737   -0.8874    0.9091 N   0  0  0  0  0  0  0  0  0  0  0  0
    0.9785   -0.5859    0.5702 N   0  0  0  0  0  0  0  0  0  0  0  0
    1.2373    0.3900   -0.3378 C   0  0  0  0  0  0  0  0  0  0  0  0
    0.1892    1.0660   -0.8762 N   0  0  0  0  0  0  0  0  0  0  0  0
   -1.0630    0.7643   -0.5371 N   0  0  0  0  0  0  0  0  0  0  0  0
   -1.3227   -0.2259    0.3560 C   0  0  0  0  0  0  0  0  0  0  0  0
  1  2  4  0
  2  3  4  0
  3  4  4  0
  4  5  4  0
  5  6  4  0
  6  1  4  0
M  END
$$$$

     RDKit          3D

  6  6  0  0  0  0  0  0  0  0999 V2000
    0.5191    1.0992   -0.0732 N   0  0  0  0  0  0  0  0  0  0  0  0
   -0.7977    0.9024   -0.1107 N   0  0  0  0  0  0  0  0  0  0  0  0
   -1.3105   -0.3488   -0.2337 C   0  0  0  0  0  0  0  0  0  0  0  0
   -0.4482   -1.3939   -0.3312 N   0  0  0  0  0  0  0  0  0  0  0  0
    0.8685   -1.1969   -0.2938 N   0  0  0  0  0  0  0  0  0  0  0  0
    1.3818    0.0541   -0.1688 C   0  0  0  0  0  0  0  0  0  0  0  0
  1  2  4  0
  2  3  4  0
  3  4  4  0
  4  5  4  0
  5  6  4  0
  6  1  4  0
M  END
$$$$

     RDKit          3D

  6  6  0  0  0  0  0  0  0  0999 V2000
    0.5191    1.0992   -0.0732 N   0  0  0  0  0  0  0  0  0  0  0  0
   -0.7977    0.9024   -0.1107 N   0  0  0  0  0  0  0  0  0  0  0  0
   -1.3105   -0.3488   -0.2337 C   0  0  0  0  0  0  0  0  0  0  0  0
   -0.4482   -1.3939   -0.3312 N   0  0  0  0  0  0  0  0  0  0  0  0
    0.8685   -1.1969   -0.2938 N   0  0  0  0  0  0  0  0  0  0  0  0
    1.3818    0.0541   -0.1688 C   0  0  0  0  0  0  0  0  0  0  0  0
  1  2  4  0
  2  3  4  0
  3  4  4  0
  4  5  4  0
  5  6  4  0
  6  1  4  0
M  END
$$$$

     RDKit          3D

  6  6  0  0  0  0  0  0  0  0999 V2000
    0.6976    1.2997   -0.2569 N   0  0  0  0  0  0  0  0  0  0  0  0
   -0.6225    1.3446   -0.0855 N   0  0  0  0  0  0  0  0  0  0  0  0
   -1.3265    0.2161    0.1901 C   0  0  0  0  0  0  0  0  0  0  0  0
   -0.6505   -0.9563    0.3000 N   0  0  0  0  0  0  0  0  0  0  0  0
    0.6696   -1.0010    0.1285 N   0  0  0  0  0  0  0  0  0  0  0  0
    1.3739    0.1271   -0.1490 C   0  0  0  0  0  0  0  0  0  0  0  0
  1  2  4  0
  2  3  4  0
  3  4  4  0
  4  5  4  0
  5  6  4  0
  6  1  4  0
M  END
$$$$

     RDKit          3D

  6  6  0  0  0  0  0  0  0  0999 V2000
    0.6976    1.2997   -0.2569 N   0  0  0  0  0  0  0  0  0  0  0  0
   -0.6225    1.3446   -0.0855 N   0  0  0  0  0  0  0  0  0  0  0  0
   -1.3265    0.2161    0.1901 C   0  0  0  0  0  0  0  0  0  0  0  0
   -0.6505   -0.9563    0.3000 N   0  0  0  0  0  0  0  0  0  0  0  0
    0.6696   -1.0010    0.1285 N   0  0  0  0  0  0  0  0  0  0  0  0
    1.3739    0.1271   -0.1490 C   0  0  0  0  0  0  0  0  0  0  0  0
  1  2  4  0
  2  3  4  0
  3  4  4  0
  4  5  4  0
  5  6  4  0
  6  1  4  0
M  END
$$$$

     RDKit          3D

  6  6  0  0  0  0  0  0  0  0999 V2000
   -0.7138   -0.8665   -0.6081 N   0  0  0  0  0  0  0  0  0  0  0  0
    0.5438   -0.6184   -0.9698 N   0  0  0  0  0  0  0  0  0  0  0  0
    1.2546    0.3752   -0.3772 C   0  0  0  0  0  0  0  0  0  0  0  0
    0.6477    1.1191    0.5838 N   0  0  0  0  0  0  0  0  0  0  0  0
   -0.6101    0.8712    0.9450 N   0  0  0  0  0  0  0  0  0  0  0  0
   -1.3207   -0.1244    0.3536 C   0  0  0  0  0  0  0  0  0  0  0  0
  1  2  4  0
  2  3  4  0
  3  4  4  0
  4  5  4  0
  5  6  4  0
  6  1  4  0
M  END
$$$$

     RDKit          3D

  6  6  0  0  0  0  0  0  0  0999 V2000
   -0.7138   -0.8665   -0.6081 N   0  0  0  0  0  0  0  0  0  0  0  0
    0.5438   -0.6184   -0.9698 N   0  0  0  0  0  0  0  0  0  0  0  0
    1.2546    0.3752   -0.3772 C   0  0  0  0  0  0  0  0  0  0  0  0
    0.6477    1.1191    0.5838 N   0  0  0  0  0  0  0  0  0  0  0  0
   -0.6101    0.8712    0.9450 N   0  0  0  0  0  0  0  0  0  0  0  0
   -1.3207   -0.1244    0.3536 C   0  0  0  0  0  0  0  0  0  0  0  0
  1  2  4  0
  2  3  4  0
  3  4  4  0
  4  5  4  0
  5  6  4  0
  6  1  4  0
M  END
$$$$

     RDKit          3D

  6  6  0  0  0  0  0  0  0  0999 V2000
   -0.5449   -0.1999    1.1182 N   0  0  0  0  0  0  0  0  0  0  0  0
    0.7396   -0.4586    0.8789 N   0  0  0  0  0  0  0  0  0  0  0  0
    1.2786   -0.2288   -0.3461 C   0  0  0  0  0  0  0  0  0  0  0  0
    0.4713    0.2512   -1.3274 N   0  0  0  0  0  0  0  0  0  0  0  0
   -0.8133    0.5095   -1.0880 N   0  0  0  0  0  0  0  0  0  0  0  0
   -1.3479    0.2989    0.1424 C   0  0  0  0  0  0  0  0  0  0  0  0
  1  2  4  0
  2  3  4  0
  3  4  4  0
  4  5  4  0
  5  6  4  0
  6  1  4  0
M  END
$$$$

     RDKit          3D

  6  6  0  0  0  0  0  0  0  0999 V2000
   -0.5449   -0.1999    1.1182 N   0  0  0  0  0  0  0  0  0  0  0  0
    0.7396   -0.4586    0.8789 N   0  0  0  0  0  0  0  0  0  0  0  0
    1.2786   -0.2288   -0.3461 C   0  0  0  0  0  0  0  0  0  0  0  0
    0.4713    0.2512   -1.3274 N   0  0  0  0  0  0  0  0  0  0  0  0
   -0.8133    0.5095   -1.0880 N   0  0  0  0  0  0  0  0  0  0  0  0
   -1.3479    0.2989    0.1424 C   0  0  0  0  0  0  0  0  0  0  0  0
  1  2  4  0
  2  3  4  0
  3  4  4  0
  4  5  4  0
  5  6  4  0
  6  1  4  0
M  END
$$$$

     RDKit          3D

  6  6  0  0  0  0  0  0  0  0999 V2000
   -1.0378   -0.9481    0.4166 N   0  0  0  0  0  0  0  0  0  0  0  0
    0.2166   -1.3907    0.3479 N   0  0  0  0  0  0  0  0  0  0  0  0
    1.2412   -0.5383    0.0851 C   0  0  0  0  0  0  0  0  0  0  0  0
    0.9533    0.7716   -0.1270 N   0  0  0  0  0  0  0  0  0  0  0  0
   -0.3011    1.2140   -0.0582 N   0  0  0  0  0  0  0  0  0  0  0  0
   -1.3234    0.3662    0.2246 C   0  0  0  0  0  0  0  0  0  0  0  0
  1  2  4  0
  2  3  4  0
  3  4  4  0
  4  5  4  0
  5  6  4  0
  6  1  4  0
M  END
$$$$

     RDKit          3D

  6  6  0  0  0  0  0  0  0  0999 V2000
   -1.0378   -0.9481    0.4166 N   0  0  0  0  0  0  0  0  0  0  0  0
    0.2166   -1.3907    0.3479 N   0  0  0  0  0  0  0  0  0  0  0  0
    1.2412   -0.5383    0.0851 C   0  0  0  0  0  0  0  0  0  0  0  0
    0.9533    0.7716   -0.1270 N   0  0  0  0  0  0  0  0  0  0  0  0
   -0.3011    1.2140   -0.0582 N   0  0  0  0  0  0  0  0  0  0  0  0
   -1.3234    0.3662    0.2246 C   0  0  0  0  0  0  0  0  0  0  0  0
  1  2  4  0
  2  3  4  0
  3  4  4  0
  4  5  4  0
  5  6  4  0
  6  1  4  0
M  END
$$$$

     RDKit          3D

  6  6  0  0  0  0  0  0  0  0999 V2000
   -0.9436   -0.6898    0.3449 N   0  0  0  0  0  0  0  0  0  0  0  0
    0.1812   -1.1588   -0.1923 N   0  0  0  0  0  0  0  0  0  0  0  0
    1.1960   -0.3196   -0.5238 C   0  0  0  0  0  0  0  0  0  0  0  0
    1.0280    1.0119   -0.3139 N   0  0  0  0  0  0  0  0  0  0  0  0
   -0.0971    1.4808    0.2230 N   0  0  0  0  0  0  0  0  0  0  0  0
   -1.1042    0.6398    0.5732 C   0  0  0  0  0  0  0  0  0  0  0  0
  1  2  4  0
  2  3  4  0
  3  4  4  0
  4  5  4  0
  5  6  4  0
  6  1  4  0
M  END
$$$$

     RDKit          3D

  6  6  0  0  0  0  0  0  0  0999 V2000
   -0.9436   -0.6898    0.3449 N   0  0  0  0  0  0  0  0  0  0  0  0
    0.1812   -1.1588   -0.1923 N   0  0  0  0  0  0  0  0  0  0  0  0
    1.1960   -0.3196   -0.5238 C   0  0  0  0  0  0  0  0  0  0  0  0
    1.0280    1.0119   -0.3139 N   0  0  0  0  0  0  0  0  0  0  0  0
   -0.0971    1.4808    0.2230 N   0  0  0  0  0  0  0  0  0  0  0  0
   -1.1042    0.6398    0.5732 C   0  0  0  0  0  0  0  0  0  0  0  0
  1  2  4  0
  2  3  4  0
  3  4  4  0
  4  5  4  0
  5  6  4  0
  6  1  4  0
M  END
$$$$

     RDKit          3D

  6  6  0  0  0  0  0  0  0  0999 V2000
    0.6581    0.2545    0.9957 N   0  0  0  0  0  0  0  0  0  0  0  0
   -0.6733    0.2788    0.9668 N   0  0  0  0  0  0  0  0  0  0  0  0
   -1.3480    0.0497   -0.1891 C   0  0  0  0  0  0  0  0  0  0  0  0
   -0.6329   -0.2258   -1.3108 N   0  0  0  0  0  0  0  0  0  0  0  0
    0.6985   -0.2505   -1.2815 N   0  0  0  0  0  0  0  0  0  0  0  0
    1.3740   -0.0015   -0.1301 C   0  0  0  0  0  0  0  0  0  0  0  0
  1  2  4  0
  2  3  4  0
  3  4  4  0
  4  5  4  0
  5  6  4  0
  6  1  4  0
M  END
$$$$

     RDKit          3D

  6  6  0  0  0  0  0  0  0  0999 V2000
    0.6581    0.2545    0.9957 N   0  0  0  0  0  0  0  0  0  0  0  0
   -0.6733    0.2788    0.9668 N   0  0  0  0  0  0  0  0  0  0  0  0
   -1.3480    0.0497   -0.1891 C   0  0  0  0  0  0  0  0  0  0  0  0
   -0.6329   -0.2258   -1.3108 N   0  0  0  0  0  0  0  0  0  0  0  0
    0.6985   -0.2505   -1.2815 N   0  0  0  0  0  0  0  0  0  0  0  0
    1.3740   -0.0015   -0.1301 C   0  0  0  0  0  0  0  0  0  0  0  0
  1  2  4  0
  2  3  4  0
  3  4  4  0
  4  5  4  0
  5  6  4  0
  6  1  4  0
M  END
$$$$

     RDKit          3D

  6  6  0  0  0  0  0  0  0  0999 V2000
    0.4490    0.9754   -0.8727 N   0  0  0  0  0  0  0  0  0  0  0  0
   -0.7505    0.9975   -0.2944 N   0  0  0  0  0  0  0  0  0  0  0  0
   -1.1924   -0.0620    0.4308 C   0  0  0  0  0  0  0  0  0  0  0  0
   -0.3729   -1.1364    0.5704 N   0  0  0  0  0  0  0  0  0  0  0  0
    0.8268   -1.1583   -0.0080 N   0  0  0  0  0  0  0  0  0  0  0  0
    1.2605   -0.1065   -0.7506 C   0  0  0  0  0  0  0  0  0  0  0  0
  1  2  4  0
  2  3  4  0
  3  4  4  0
  4  5  4  0
  5  6  4  0
  6  1  4  0
M  END
$$$$

     RDKit          3D

  6  6  0  0  0  0  0  0  0  0999 V2000
    0.4490    0.9754   -0.8727 N   0  0  0  0  0  0  0  0  0  0  0  0
   -0.7505    0.9975   -0.2944 N   0  0  0  0  0  0  0  0  0  0  0  0
   -1.1924   -0.0620    0.4308 C   0  0  0  0  0  0  0  0  0  0  0  0
   -0.3729   -1.1364    0.5704 N   0  0  0  0  0  0  0  0  0  0  0  0
    0.8268   -1.1583   -0.0080 N   0  0  0  0  0  0  0  0  0  0  0  0
    1.2605   -0.1065   -0.7506 C   0  0  0  0  0  0  0  0  0  0  0  0
  1  2  4  0
  2  3  4  0
  3  4  4  0
  4  5  4  0
  5  6  4  0
  6  1  4  0
M  END
$$$$

     RDKit          3D

  6  6  0  0  0  0  0  0  0  0999 V2000
    0.6404   -0.6955    1.0663 N   0  0  0  0  0  0  0  0  0  0  0  0
   -0.6789   -0.5213    1.1214 N   0  0  0  0  0  0  0  0  0  0  0  0
   -1.3316    0.1601    0.1441 C   0  0  0  0  0  0  0  0  0  0  0  0
   -0.6049    0.6707   -0.8830 N   0  0  0  0  0  0  0  0  0  0  0  0
    0.7145    0.4963   -0.9379 N   0  0  0  0  0  0  0  0  0  0  0  0
    1.3673   -0.1867    0.0384 C   0  0  0  0  0  0  0  0  0  0  0  0
  1  2  4  0
  2  3  4  0
  3  4  4  0
  4  5  4  0
  5  6  4  0
  6  1  4  0
M  END
$$$$

     RDKit          3D

  6  6  0  0  0  0  0  0  0  0999 V2000
    0.6404   -0.6955    1.0663 N   0  0  0  0  0  0  0  0  0  0  0  0
   -0.6789   -0.5213    1.1214 N   0  0  0  0  0  0  0  0  0  0  0  0
   -1.3316    0.1601    0.1441 C   0  0  0  0  0  0  0  0  0  0  0  0
   -0.6049    0.6707   -0.8830 N   0  0  0  0  0  0  0  0  0  0  0  0
    0.7145    0.4963   -0.9379 N   0  0  0  0  0  0  0  0  0  0  0  0
    1.3673   -0.1867    0.0384 C   0  0  0  0  0  0  0  0  0  0  0  0
  1  2  4  0
  2  3  4  0
  3  4  4  0
  4  5  4  0
  5  6  4  0
  6  1  4  0
M  END
$$$$

     RDKit          3D

  6  6  0  0  0  0  0  0  0  0999 V2000
    0.2835   -0.3149    1.0772 N   0  0  0  0  0  0  0  0  0  0  0  0
   -0.9535   -0.4049    0.5920 N   0  0  0  0  0  0  0  0  0  0  0  0
   -1.2412    0.0256   -0.6632 C   0  0  0  0  0  0  0  0  0  0  0  0
   -0.2398    0.5631   -1.4073 N   0  0  0  0  0  0  0  0  0  0  0  0
    0.9972    0.6535   -0.9216 N   0  0  0  0  0  0  0  0  0  0  0  0
    1.2855    0.2208    0.3336 C   0  0  0  0  0  0  0  0  0  0  0  0
  1  2  4  0
  2  3  4  0
  3  4  4  0
  4  5  4  0
  5  6  4  0
  6  1  4  0
M  END
$$$$

     RDKit          3D

  6  6  0  0  0  0  0  0  0  0999 V2000
    0.2835   -0.3149    1.0772 N   0  0  0  0  0  0  0  0  0  0  0  0
   -0.9535   -0.4049    0.5920 N   0  0  0  0  0  0  0  0  0  0  0  0
   -1.2412    0.0256   -0.6632 C   0  0  0  0  0  0  0  0  0  0  0  0
   -0.2398    0.5631   -1.4073 N   0  0  0  0  0  0  0  0  0  0  0  0
    0.9972    0.6535   -0.9216 N   0  0  0  0  0  0  0  0  0  0  0  0
    1.2855    0.2208    0.3336 C   0  0  0  0  0  0  0  0  0  0  0  0
  1  2  4  0
  2  3  4  0
  3  4  4  0
  4  5  4  0
  5  6  4  0
  6  1  4  0
M  END
$$$$

     RDKit          3D

  6  6  0  0  0  0  0  0  0  0999 V2000
    0.5376    1.2791   -0.4617 N   0  0  0  0  0  0  0  0  0  0  0  0
   -0.7588    1.0378   -0.6489 N   0  0  0  0  0  0  0  0  0  0  0  0
   -1.3263   -0.1063   -0.1863 C   0  0  0  0  0  0  0  0  0  0  0  0
   -0.5364   -1.0079    0.4514 N   0  0  0  0  0  0  0  0  0  0  0  0
    0.7602   -0.7663    0.6385 N   0  0  0  0  0  0  0  0  0  0  0  0
    1.3237    0.3874    0.1949 C   0  0  0  0  0  0  0  0  0  0  0  0
  1  2  4  0
  2  3  4  0
  3  4  4  0
  4  5  4  0
  5  6  4  0
  6  1  4  0
M  END
$$$$

     RDKit          3D

  6  6  0  0  0  0  0  0  0  0999 V2000
    0.5376    1.2791   -0.4617 N   0  0  0  0  0  0  0  0  0  0  0  0
   -0.7588    1.0378   -0.6489 N   0  0  0  0  0  0  0  0  0  0  0  0
   -1.3263   -0.1063   -0.1863 C   0  0  0  0  0  0  0  0  0  0  0  0
   -0.5364   -1.0079    0.4514 N   0  0  0  0  0  0  0  0  0  0  0  0
    0.7602   -0.7663    0.6385 N   0  0  0  0  0  0  0  0  0  0  0  0
    1.3237    0.3874    0.1949 C   0  0  0  0  0  0  0  0  0  0  0  0
  1  2  4  0
  2  3  4  0
  3  4  4  0
  4  5  4  0
  5  6  4  0
  6  1  4  0
M  END
$$$$

     RDKit          3D

  6  6  0  0  0  0  0  0  0  0999 V2000
    0.5264   -1.3061    0.3663 N   0  0  0  0  0  0  0  0  0  0  0  0
   -0.7947   -1.1398    0.4029 N   0  0  0  0  0  0  0  0  0  0  0  0
   -1.3552    0.0505    0.0648 C   0  0  0  0  0  0  0  0  0  0  0  0
   -0.5373    1.0622   -0.3239 N   0  0  0  0  0  0  0  0  0  0  0  0
    0.7836    0.8959   -0.3599 N   0  0  0  0  0  0  0  0  0  0  0  0
    1.3449   -0.2932   -0.0207 C   0  0  0  0  0  0  0  0  0  0  0  0
  1  2  4  0
  2  3  4  0
  3  4  4  0
  4  5  4  0
  5  6  4  0
  6  1  4  0
M  END
$$$$

     RDKit          3D

  6  6  0  0  0  0  0  0  0  0999 V2000
    0.5264   -1.3061    0.3663 N   0  0  0  0  0  0  0  0  0  0  0  0
   -0.7947   -1.1398    0.4029 N   0  0  0  0  0  0  0  0  0  0  0  0
   -1.3552    0.0505    0.0648 C   0  0  0  0  0  0  0  0  0  0  0  0
   -0.5373    1.0622   -0.3239 N   0  0  0  0  0  0  0  0  0  0  0  0
    0.7836    0.8959   -0.3599 N   0  0  0  0  0  0  0  0  0  0  0  0
    1.3449   -0.2932   -0.0207 C   0  0  0  0  0  0  0  0  0  0  0  0
  1  2  4  0
  2  3  4  0
  3  4  4  0
  4  5  4  0
  5  6  4  0
  6  1  4  0
M  END
$$$$

     RDKit          3D

  4  3  0  0  0  0  0  0  0  0999 V2000
    0.2297   -1.4970   -1.1890 C   0  0  0  0  0  0  0  0  0  0  0  0
    0.4929   -0.4088   -0.1811 C   0  0  0  0  0  0  0  0  0  0  0  0
   -0.4926    0.4097    0.2537 C   0  0  0  0  0  0  0  0  0  0  0  0
   -0.2293    1.4978    1.2616 C   0  0  0  0  0  0  0  0  0  0  0  0
  1  2  1  0
  2  3  2  0
  3  4  1  0
M  END
$$$$

     RDKit          3D

  4  3  0  0  0  0  0  0  0  0999 V2000
   -0.2631    1.3275   -1.4111 C   0  0  0  0  0  0  0  0  0  0  0  0
   -0.4732    0.4486   -0.2059 C   0  0  0  0  0  0  0  0  0  0  0  0
    0.4794   -0.4125    0.2196 C   0  0  0  0  0  0  0  0  0  0  0  0
    0.2693   -1.2915    1.4247 C   0  0  0  0  0  0  0  0  0  0  0  0
  1  2  1  0
  2  3  2  0
  3  4  1  0
M  END
$$$$

     RDKit          3D

  4  3  0  0  0  0  0  0  0  0999 V2000
   -1.4239   -2.1459    0.5773 C   0  0  0  0  0  0  0  0  0  0  0  0
   -0.6472   -0.8947    0.2638 C   0  0  0  0  0  0  0  0  0  0  0  0
    0.4802   -0.9246   -0.4849 C   0  0  0  0  0  0  0  0  0  0  0  0
    1.0238   -2.2107   -1.0481 C   0  0  0  0  0  0  0  0  0  0  0  0
  1  2  1  0
  2  3  2  0
  3  4  1  0
M  END
$$$$

     RDKit          3D

  4  3  0  0  0  0  0  0  0  0999 V2000
   -0.4967   -2.1452   -1.6138 C   0  0  0  0  0  0  0  0  0  0  0  0
   -0.2717   -0.9114   -0.7806 C   0  0  0  0  0  0  0  0  0  0  0  0
    0.9636   -0.5506   -0.3608 C   0  0  0  0  0  0  0  0  0  0  0  0
    2.1852   -1.3617   -0.7023 C   0  0  0  0  0  0  0  0  0  0  0  0
  1  2  1  0
  2  3  2  0
  3  4  1  0
M  END
$$$$

     RDKit          3D

  4  3  0  0  0  0  0  0  0  0999 V2000
    1.4392    1.4540   -1.7058 C   0  0  0  0  0  0  0  0  0  0  0  0
    0.6533    0.5895   -0.7560 C   0  0  0  0  0  0  0  0  0  0  0  0
   -0.5848    0.9377   -0.3338 C   0  0  0  0  0  0  0  0  0  0  0  0
   -1.2489    2.2099   -0.7892 C   0  0  0  0  0  0  0  0  0  0  0  0
  1  2  1  0
  2  3  2  0
  3  4  1  0
M  END
$$$$

     RDKit          3D

  4  3  0  0  0  0  0  0  0  0999 V2000
    1.1666   -2.3568    0.0049 C   0  0  0  0  0  0  0  0  0  0  0  0
    0.5412   -0.9925   -0.1154 C   0  0  0  0  0  0  0  0  0  0  0  0
   -0.6103   -0.6776    0.5229 C   0  0  0  0  0  0  0  0  0  0  0  0
   -1.3333   -1.6732    1.3907 C   0  0  0  0  0  0  0  0  0  0  0  0
  1  2  1  0
  2  3  2  0
  3  4  1  0
M  END
$$$$
