
     RDKit          3D

  7  7  0  0  0  0  0  0  0  0999 V2000
   -1.2373    1.5843    2.0068 F   0  0  0  0  0  0  0  0  0  0  0  0
   -0.6389    0.8188    1.0587 C   0  0  0  0  0  0  0  0  0  0  0  0
    0.7545    0.7010    1.0618 C   0  0  0  0  0  0  0  0  0  0  0  0
    1.4057   -0.1059    0.1138 C   0  0  0  0  0  0  0  0  0  0  0  0
    0.6362   -0.8030   -0.8319 C   0  0  0  0  0  0  0  0  0  0  0  0
   -0.7561   -0.6870   -0.8369 C   0  0  0  0  0  0  0  0  0  0  0  0
   -1.4075    0.1243    0.1065 C   0  0  0  0  0  0  0  0  0  0  0  0
  1  2  1  0
  2  3  4  0
  3  4  4  0
  4  5  4  0
  5  6  4  0
  6  7  4  0
  7  2  4  0
M  END
$$$$

     RDKit          3D

  7  7  0  0  0  0  0  0  0  0999 V2000
   -1.2550   -2.3641   -0.4997 F   0  0  0  0  0  0  0  0  0  0  0  0
   -0.6498   -1.1956   -0.1664 C   0  0  0  0  0  0  0  0  0  0  0  0
    0.7457   -1.1174   -0.2105 C   0  0  0  0  0  0  0  0  0  0  0  0
    1.4073    0.0666    0.1558 C   0  0  0  0  0  0  0  0  0  0  0  0
    0.6473    1.1694    0.5786 C   0  0  0  0  0  0  0  0  0  0  0  0
   -0.7470    1.0938    0.6236 C   0  0  0  0  0  0  0  0  0  0  0  0
   -1.4095   -0.0875    0.2517 C   0  0  0  0  0  0  0  0  0  0  0  0
  1  2  1  0
  2  3  4  0
  3  4  4  0
  4  5  4  0
  5  6  4  0
  6  7  4  0
  7  2  4  0
M  END
$$$$

     RDKit          3D

  7  7  0  0  0  0  0  0  0  0999 V2000
    1.4840   -1.8775   -1.5762 F   0  0  0  0  0  0  0  0  0  0  0  0
    0.7654   -1.0273   -0.7993 C   0  0  0  0  0  0  0  0  0  0  0  0
   -0.6287   -1.0228   -0.9080 C   0  0  0  0  0  0  0  0  0  0  0  0
   -1.4066   -0.1810   -0.0957 C   0  0  0  0  0  0  0  0  0  0  0  0
   -0.7634    0.6649    0.8227 C   0  0  0  0  0  0  0  0  0  0  0  0
    0.6293    0.6622    0.9333 C   0  0  0  0  0  0  0  0  0  0  0  0
    1.4073   -0.1839    0.1262 C   0  0  0  0  0  0  0  0  0  0  0  0
  1  2  1  0
  2  3  4  0
  3  4  4  0
  4  5  4  0
  5  6  4  0
  6  7  4  0
  7  2  4  0
M  END
$$$$

     RDKit          3D

  7  7  0  0  0  0  0  0  0  0999 V2000
   -1.3203   -0.3031   -2.4335 F   0  0  0  0  0  0  0  0  0  0  0  0
   -0.6828   -0.1477   -1.2451 C   0  0  0  0  0  0  0  0  0  0  0  0
    0.7127   -0.0601   -1.2300 C   0  0  0  0  0  0  0  0  0  0  0  0
    1.4082    0.0667   -0.0160 C   0  0  0  0  0  0  0  0  0  0  0  0
    0.6809    0.1139    1.1846 C   0  0  0  0  0  0  0  0  0  0  0  0
   -0.7135    0.0266    1.1722 C   0  0  0  0  0  0  0  0  0  0  0  0
   -1.4090   -0.1068   -0.0406 C   0  0  0  0  0  0  0  0  0  0  0  0
  1  2  1  0
  2  3  4  0
  3  4  4  0
  4  5  4  0
  5  6  4  0
  6  7  4  0
  7  2  4  0
M  END
$$$$

     RDKit          3D

  7  7  0  0  0  0  0  0  0  0999 V2000
   -1.4611    1.7696    1.5830 F   0  0  0  0  0  0  0  0  0  0  0  0
   -0.7526    0.9252    0.7908 C   0  0  0  0  0  0  0  0  0  0  0  0
    0.6408    0.8969    0.9042 C   0  0  0  0  0  0  0  0  0  0  0  0
    1.4048    0.0210    0.1150 C   0  0  0  0  0  0  0  0  0  0  0  0
    0.7481   -0.8363   -0.7830 C   0  0  0  0  0  0  0  0  0  0  0  0
   -0.6442   -0.8112   -0.8968 C   0  0  0  0  0  0  0  0  0  0  0  0
   -1.4081    0.0689   -0.1131 C   0  0  0  0  0  0  0  0  0  0  0  0
  1  2  1  0
  2  3  4  0
  3  4  4  0
  4  5  4  0
  5  6  4  0
  6  7  4  0
  7  2  4  0
M  END
$$$$

     RDKit          3D

  7  7  0  0  0  0  0  0  0  0999 V2000
    1.4248    2.0721   -1.3685 F   0  0  0  0  0  0  0  0  0  0  0  0
    0.7359    1.0559   -0.7894 C   0  0  0  0  0  0  0  0  0  0  0  0
   -0.6583    1.1354   -0.7176 C   0  0  0  0  0  0  0  0  0  0  0  0
   -1.4064    0.0872   -0.1561 C   0  0  0  0  0  0  0  0  0  0  0  0
   -0.7330   -1.0403    0.3420 C   0  0  0  0  0  0  0  0  0  0  0  0
    0.6599   -1.1221    0.2714 C   0  0  0  0  0  0  0  0  0  0  0  0
    1.4080   -0.0775   -0.2957 C   0  0  0  0  0  0  0  0  0  0  0  0
  1  2  1  0
  2  3  4  0
  3  4  4  0
  4  5  4  0
  5  6  4  0
  6  7  4  0
  7  2  4  0
M  END
$$$$

     RDKit          3D

  7  7  0  0  0  0  0  0  0  0999 V2000
    1.1130   -1.8181   -1.8404 F   0  0  0  0  0  0  0  0  0  0  0  0
    0.5786   -0.9751   -0.9204 C   0  0  0  0  0  0  0  0  0  0  0  0
   -0.8103   -0.9347   -0.7625 C   0  0  0  0  0  0  0  0  0  0  0  0
   -1.4000   -0.0507    0.1565 C   0  0  0  0  0  0  0  0  0  0  0  0
   -0.5752    0.8052    0.9050 C   0  0  0  0  0  0  0  0  0  0  0  0
    0.8126    0.7678    0.7478 C   0  0  0  0  0  0  0  0  0  0  0  0
    1.4034   -0.1281   -0.1578 C   0  0  0  0  0  0  0  0  0  0  0  0
  1  2  1  0
  2  3  4  0
  3  4  4  0
  4  5  4  0
  5  6  4  0
  6  7  4  0
  7  2  4  0
M  END
$$$$

     RDKit          3D

  7  7  0  0  0  0  0  0  0  0999 V2000
   -1.2834    1.6881   -1.7116 F   0  0  0  0  0  0  0  0  0  0  0  0
   -0.6635    0.8685   -0.8247 C   0  0  0  0  0  0  0  0  0  0  0  0
    0.7340    0.8251   -0.8027 C   0  0  0  0  0  0  0  0  0  0  0  0
    1.4086   -0.0394    0.0757 C   0  0  0  0  0  0  0  0  0  0  0  0
    0.6591   -0.8578    0.9367 C   0  0  0  0  0  0  0  0  0  0  0  0
   -0.7373   -0.8174    0.9153 C   0  0  0  0  0  0  0  0  0  0  0  0
   -1.4117    0.0502    0.0413 C   0  0  0  0  0  0  0  0  0  0  0  0
  1  2  1  0
  2  3  4  0
  3  4  4  0
  4  5  4  0
  5  6  4  0
  6  7  4  0
  7  2  4  0
M  END
$$$$

     RDKit          3D

  7  7  0  0  0  0  0  0  0  0999 V2000
   -1.2817   -2.0052    1.5595 F   0  0  0  0  0  0  0  0  0  0  0  0
   -0.6631   -1.0292    0.8471 C   0  0  0  0  0  0  0  0  0  0  0  0
    0.7344   -1.0008    0.8060 C   0  0  0  0  0  0  0  0  0  0  0  0
    1.4086    0.0188    0.1133 C   0  0  0  0  0  0  0  0  0  0  0  0
    0.6589    1.0199   -0.5259 C   0  0  0  0  0  0  0  0  0  0  0  0
   -0.7374    0.9936   -0.4862 C   0  0  0  0  0  0  0  0  0  0  0  0
   -1.4118   -0.0348    0.1915 C   0  0  0  0  0  0  0  0  0  0  0  0
  1  2  1  0
  2  3  4  0
  3  4  4  0
  4  5  4  0
  5  6  4  0
  6  7  4  0
  7  2  4  0
M  END
$$$$

     RDKit          3D

  7  7  0  0  0  0  0  0  0  0999 V2000
   -1.2570    2.0338    1.2240 F   0  0  0  0  0  0  0  0  0  0  0  0
   -0.6488    1.0449    0.5205 C   0  0  0  0  0  0  0  0  0  0  0  0
    0.7452    0.9423    0.5600 C   0  0  0  0  0  0  0  0  0  0  0  0
    1.4055   -0.0936   -0.1218 C   0  0  0  0  0  0  0  0  0  0  0  0
    0.6440   -1.0358   -0.8326 C   0  0  0  0  0  0  0  0  0  0  0  0
   -0.7490   -0.9355   -0.8735 C   0  0  0  0  0  0  0  0  0  0  0  0
   -1.4080    0.1097   -0.2064 C   0  0  0  0  0  0  0  0  0  0  0  0
  1  2  1  0
  2  3  4  0
  3  4  4  0
  4  5  4  0
  5  6  4  0
  6  7  4  0
  7  2  4  0
M  END
$$$$

     RDKit          3D

  7  7  0  0  0  0  0  0  0  0999 V2000
   -1.4358   -2.1199   -0.9228 F   0  0  0  0  0  0  0  0  0  0  0  0
   -0.7408   -1.0667   -0.4225 C   0  0  0  0  0  0  0  0  0  0  0  0
    0.6568   -1.1123   -0.4262 C   0  0  0  0  0  0  0  0  0  0  0  0
    1.4080   -0.0611    0.1258 C   0  0  0  0  0  0  0  0  0  0  0  0
    0.7351    1.0413    0.6778 C   0  0  0  0  0  0  0  0  0  0  0  0
   -0.6613    1.0891    0.6827 C   0  0  0  0  0  0  0  0  0  0  0  0
   -1.4122    0.0408    0.1271 C   0  0  0  0  0  0  0  0  0  0  0  0
  1  2  1  0
  2  3  4  0
  3  4  4  0
  4  5  4  0
  5  6  4  0
  6  7  4  0
  7  2  4  0
M  END
$$$$

     RDKit          3D

  7  7  0  0  0  0  0  0  0  0999 V2000
   -1.2101    2.3150   -0.8962 F   0  0  0  0  0  0  0  0  0  0  0  0
   -0.6272    1.1676   -0.4647 C   0  0  0  0  0  0  0  0  0  0  0  0
    0.7655    1.0525   -0.5166 C   0  0  0  0  0  0  0  0  0  0  0  0
    1.4052   -0.1055   -0.0434 C   0  0  0  0  0  0  0  0  0  0  0  0
    0.6253   -1.1502    0.4792 C   0  0  0  0  0  0  0  0  0  0  0  0
   -0.7662   -1.0368    0.5336 C   0  0  0  0  0  0  0  0  0  0  0  0
   -1.4062    0.1181    0.0561 C   0  0  0  0  0  0  0  0  0  0  0  0
  1  2  1  0
  2  3  4  0
  3  4  4  0
  4  5  4  0
  5  6  4  0
  6  7  4  0
  7  2  4  0
M  END
$$$$

     RDKit          3D

  7  7  0  0  0  0  0  0  0  0999 V2000
    1.4513    1.0374    2.0803 F   0  0  0  0  0  0  0  0  0  0  0  0
    0.7484    0.5369    1.0324 C   0  0  0  0  0  0  0  0  0  0  0  0
   -0.6480    0.5109    1.1022 C   0  0  0  0  0  0  0  0  0  0  0  0
   -1.4062   -0.0346    0.0525 C   0  0  0  0  0  0  0  0  0  0  0  0
   -0.7416   -0.5502   -1.0724 C   0  0  0  0  0  0  0  0  0  0  0  0
    0.6535   -0.5269   -1.1435 C   0  0  0  0  0  0  0  0  0  0  0  0
    1.4112    0.0228   -0.0971 C   0  0  0  0  0  0  0  0  0  0  0  0
  1  2  1  0
  2  3  4  0
  3  4  4  0
  4  5  4  0
  5  6  4  0
  6  7  4  0
  7  2  4  0
M  END
$$$$

     RDKit          3D

  6  6  0  0  0  0  0  0  0  0999 V2000
    0.8630    0.1591    1.2926 N   0  0  0  0  0  0  0  0  0  0  0  0
   -0.4505    0.3290    1.4352 N   0  0  0  0  0  0  0  0  0  0  0  0
   -1.2742    0.2990    0.3559 C   0  0  0  0  0  0  0  0  0  0  0  0
   -0.7272    0.1224   -0.8743 N   0  0  0  0  0  0  0  0  0  0  0  0
    0.5862   -0.0474   -1.0162 N   0  0  0  0  0  0  0  0  0  0  0  0
    1.4076   -0.0461    0.0650 C   0  0  0  0  0  0  0  0  0  0  0  0
  1  2  4  0
  2  3  4  0
  3  4  4  0
  4  5  4  0
  5  6  4  0
  6  1  4  0
M  END
$$$$

     RDKit          3D

  6  6  0  0  0  0  0  0  0  0999 V2000
    0.8630    0.1591    1.2926 N   0  0  0  0  0  0  0  0  0  0  0  0
   -0.4505    0.3290    1.4352 N   0  0  0  0  0  0  0  0  0  0  0  0
   -1.2742    0.2990    0.3559 C   0  0  0  0  0  0  0  0  0  0  0  0
   -0.7272    0.1224   -0.8743 N   0  0  0  0  0  0  0  0  0  0  0  0
    0.5862   -0.0474   -1.0162 N   0  0  0  0  0  0  0  0  0  0  0  0
    1.4076   -0.0461    0.0650 C   0  0  0  0  0  0  0  0  0  0  0  0
  1  2  4  0
  2  3  4  0
  3  4  4  0
  4  5  4  0
  5  6  4  0
  6  1  4  0
M  END
$$$$

     RDKit          3D

  6  6  0  0  0  0  0  0  0  0999 V2000
    0.6419   -0.7156   -0.5147 N   0  0  0  0  0  0  0  0  0  0  0  0
   -0.6882   -0.6547   -0.4785 N   0  0  0  0  0  0  0  0  0  0  0  0
   -1.3186    0.4373    0.0253 C   0  0  0  0  0  0  0  0  0  0  0  0
   -0.5645    1.4739    0.4737 N   0  0  0  0  0  0  0  0  0  0  0  0
    0.7655    1.4124    0.4372 N   0  0  0  0  0  0  0  0  0  0  0  0
    1.3971    0.3197   -0.0638 C   0  0  0  0  0  0  0  0  0  0  0  0
  1  2  4  0
  2  3  4  0
  3  4  4  0
  4  5  4  0
  5  6  4  0
  6  1  4  0
M  END
$$$$

     RDKit          3D

  6  6  0  0  0  0  0  0  0  0999 V2000
    0.6419   -0.7156   -0.5147 N   0  0  0  0  0  0  0  0  0  0  0  0
   -0.6882   -0.6547   -0.4785 N   0  0  0  0  0  0  0  0  0  0  0  0
   -1.3186    0.4373    0.0253 C   0  0  0  0  0  0  0  0  0  0  0  0
   -0.5645    1.4739    0.4737 N   0  0  0  0  0  0  0  0  0  0  0  0
    0.7655    1.4124    0.4372 N   0  0  0  0  0  0  0  0  0  0  0  0
    1.3971    0.3197   -0.0638 C   0  0  0  0  0  0  0  0  0  0  0  0
  1  2  4  0
  2  3  4  0
  3  4  4  0
  4  5  4  0
  5  6  4  0
  6  1  4  0
M  END
$$$$

     RDKit          3D

  6  6  0  0  0  0  0  0  0  0999 V2000
   -0.6465   -0.0642    1.3412 N   0  0  0  0  0  0  0  0  0  0  0  0
    0.6840   -0.0117    1.3061 N   0  0  0  0  0  0  0  0  0  0  0  0
    1.3385    0.1970    0.1348 C   0  0  0  0  0  0  0  0  0  0  0  0
    0.6074    0.3699   -0.9964 N   0  0  0  0  0  0  0  0  0  0  0  0
   -0.7230    0.3172   -0.9607 N   0  0  0  0  0  0  0  0  0  0  0  0
   -1.3786    0.1057    0.2102 C   0  0  0  0  0  0  0  0  0  0  0  0
  1  2  4  0
  2  3  4  0
  3  4  4  0
  4  5  4  0
  5  6  4  0
  6  1  4  0
M  END
$$$$

     RDKit          3D

  6  6  0  0  0  0  0  0  0  0999 V2000
   -0.6465   -0.0642    1.3412 N   0  0  0  0  0  0  0  0  0  0  0  0
    0.6840   -0.0117    1.3061 N   0  0  0  0  0  0  0  0  0  0  0  0
    1.3385    0.1970    0.1348 C   0  0  0  0  0  0  0  0  0  0  0  0
    0.6074    0.3699   -0.9964 N   0  0  0  0  0  0  0  0  0  0  0  0
   -0.7230    0.3172   -0.9607 N   0  0  0  0  0  0  0  0  0  0  0  0
   -1.3786    0.1057    0.2102 C   0  0  0  0  0  0  0  0  0  0  0  0
  1  2  4  0
  2  3  4  0
  3  4  4  0
  4  5  4  0
  5  6  4  0
  6  1  4  0
M  END
$$$$

     RDKit          3D

  6  6  0  0  0  0  0  0  0  0999 V2000
   -0.8079    1.2973   -0.5249 N   0  0  0  0  0  0  0  0  0  0  0  0
    0.5115    1.3471   -0.7012 N   0  0  0  0  0  0  0  0  0  0  0  0
    1.2901    0.2723   -0.4130 C   0  0  0  0  0  0  0  0  0  0  0  0
    0.6918   -0.8633    0.0299 N   0  0  0  0  0  0  0  0  0  0  0  0
   -0.6274   -0.9124    0.2060 N   0  0  0  0  0  0  0  0  0  0  0  0
   -1.4039    0.1706   -0.0547 C   0  0  0  0  0  0  0  0  0  0  0  0
  1  2  4  0
  2  3  4  0
  3  4  4  0
  4  5  4  0
  5  6  4  0
  6  1  4  0
M  END
$$$$

     RDKit          3D

  6  6  0  0  0  0  0  0  0  0999 V2000
   -0.8079    1.2973   -0.5249 N   0  0  0  0  0  0  0  0  0  0  0  0
    0.5115    1.3471   -0.7012 N   0  0  0  0  0  0  0  0  0  0  0  0
    1.2901    0.2723   -0.4130 C   0  0  0  0  0  0  0  0  0  0  0  0
    0.6918   -0.8633    0.0299 N   0  0  0  0  0  0  0  0  0  0  0  0
   -0.6274   -0.9124    0.2060 N   0  0  0  0  0  0  0  0  0  0  0  0
   -1.4039    0.1706   -0.0547 C   0  0  0  0  0  0  0  0  0  0  0  0
  1  2  4  0
  2  3  4  0
  3  4  4  0
  4  5  4  0
  5  6  4  0
  6  1  4  0
M  END
$$$$

     RDKit          3D

  6  6  0  0  0  0  0  0  0  0999 V2000
   -0.6059   -0.9630   -0.1706 N   0  0  0  0  0  0  0  0  0  0  0  0
    0.7203   -0.8413   -0.1797 N   0  0  0  0  0  0  0  0  0  0  0  0
    1.3117    0.3255    0.1844 C   0  0  0  0  0  0  0  0  0  0  0  0
    0.5237    1.3557    0.5866 N   0  0  0  0  0  0  0  0  0  0  0  0
   -0.8027    1.2333    0.5955 N   0  0  0  0  0  0  0  0  0  0  0  0
   -1.3962    0.0756    0.2042 C   0  0  0  0  0  0  0  0  0  0  0  0
  1  2  4  0
  2  3  4  0
  3  4  4  0
  4  5  4  0
  5  6  4  0
  6  1  4  0
M  END
$$$$

     RDKit          3D

  6  6  0  0  0  0  0  0  0  0999 V2000
   -0.6059   -0.9630   -0.1706 N   0  0  0  0  0  0  0  0  0  0  0  0
    0.7203   -0.8413   -0.1797 N   0  0  0  0  0  0  0  0  0  0  0  0
    1.3117    0.3255    0.1844 C   0  0  0  0  0  0  0  0  0  0  0  0
    0.5237    1.3557    0.5866 N   0  0  0  0  0  0  0  0  0  0  0  0
   -0.8027    1.2333    0.5955 N   0  0  0  0  0  0  0  0  0  0  0  0
   -1.3962    0.0756    0.2042 C   0  0  0  0  0  0  0  0  0  0  0  0
  1  2  4  0
  2  3  4  0
  3  4  4  0
  4  5  4  0
  5  6  4  0
  6  1  4  0
M  END
$$$$

     RDKit          3D

  6  6  0  0  0  0  0  0  0  0999 V2000
    0.7116   -0.0725    0.9314 N   0  0  0  0  0  0  0  0  0  0  0  0
   -0.6175    0.0057    0.9702 N   0  0  0  0  0  0  0  0  0  0  0  0
   -1.3230    0.3686   -0.1318 C   0  0  0  0  0  0  0  0  0  0  0  0
   -0.6436    0.6685   -1.2687 N   0  0  0  0  0  0  0  0  0  0  0  0
    0.6855    0.5901   -1.3069 N   0  0  0  0  0  0  0  0  0  0  0  0
    1.3919    0.2246   -0.2063 C   0  0  0  0  0  0  0  0  0  0  0  0
  1  2  4  0
  2  3  4  0
  3  4  4  0
  4  5  4  0
  5  6  4  0
  6  1  4  0
M  END
$$$$

     RDKit          3D

  6  6  0  0  0  0  0  0  0  0999 V2000
    0.7116   -0.0725    0.9314 N   0  0  0  0  0  0  0  0  0  0  0  0
   -0.6175    0.0057    0.9702 N   0  0  0  0  0  0  0  0  0  0  0  0
   -1.3230    0.3686   -0.1318 C   0  0  0  0  0  0  0  0  0  0  0  0
   -0.6436    0.6685   -1.2687 N   0  0  0  0  0  0  0  0  0  0  0  0
    0.6855    0.5901   -1.3069 N   0  0  0  0  0  0  0  0  0  0  0  0
    1.3919    0.2246   -0.2063 C   0  0  0  0  0  0  0  0  0  0  0  0
  1  2  4  0
  2  3  4  0
  3  4  4  0
  4  5  4  0
  5  6  4  0
  6  1  4  0
M  END
$$$$

     RDKit          3D

  6  6  0  0  0  0  0  0  0  0999 V2000
    0.7960    1.3166   -0.3065 N   0  0  0  0  0  0  0  0  0  0  0  0
   -0.5287    1.4415   -0.2441 N   0  0  0  0  0  0  0  0  0  0  0  0
   -1.3030    0.4078    0.1755 C   0  0  0  0  0  0  0  0  0  0  0  0
   -0.6962   -0.7450    0.5582 N   0  0  0  0  0  0  0  0  0  0  0  0
    0.6284   -0.8693    0.4956 N   0  0  0  0  0  0  0  0  0  0  0  0
    1.4017    0.1537    0.0493 C   0  0  0  0  0  0  0  0  0  0  0  0
  1  2  4  0
  2  3  4  0
  3  4  4  0
  4  5  4  0
  5  6  4  0
  6  1  4  0
M  END
$$$$

     RDKit          3D

  6  6  0  0  0  0  0  0  0  0999 V2000
    0.7960    1.3166   -0.3065 N   0  0  0  0  0  0  0  0  0  0  0  0
   -0.5287    1.4415   -0.2441 N   0  0  0  0  0  0  0  0  0  0  0  0
   -1.3030    0.4078    0.1755 C   0  0  0  0  0  0  0  0  0  0  0  0
   -0.6962   -0.7450    0.5582 N   0  0  0  0  0  0  0  0  0  0  0  0
    0.6284   -0.8693    0.4956 N   0  0  0  0  0  0  0  0  0  0  0  0
    1.4017    0.1537    0.0493 C   0  0  0  0  0  0  0  0  0  0  0  0
  1  2  4  0
  2  3  4  0
  3  4  4  0
  4  5  4  0
  5  6  4  0
  6  1  4  0
M  END
$$$$

     RDKit          3D

  6  6  0  0  0  0  0  0  0  0999 V2000
   -0.5678   -0.8954   -0.4594 N   0  0  0  0  0  0  0  0  0  0  0  0
    0.7496   -0.7003   -0.4753 N   0  0  0  0  0  0  0  0  0  0  0  0
    1.2810    0.4771   -0.0569 C   0  0  0  0  0  0  0  0  0  0  0  0
    0.4390    1.4620    0.3497 N   0  0  0  0  0  0  0  0  0  0  0  0
   -0.8785    1.2663    0.3653 N   0  0  0  0  0  0  0  0  0  0  0  0
   -1.4091    0.0785   -0.0263 C   0  0  0  0  0  0  0  0  0  0  0  0
  1  2  4  0
  2  3  4  0
  3  4  4  0
  4  5  4  0
  5  6  4  0
  6  1  4  0
M  END
$$$$

     RDKit          3D

  6  6  0  0  0  0  0  0  0  0999 V2000
   -0.5678   -0.8954   -0.4594 N   0  0  0  0  0  0  0  0  0  0  0  0
    0.7496   -0.7003   -0.4753 N   0  0  0  0  0  0  0  0  0  0  0  0
    1.2810    0.4771   -0.0569 C   0  0  0  0  0  0  0  0  0  0  0  0
    0.4390    1.4620    0.3497 N   0  0  0  0  0  0  0  0  0  0  0  0
   -0.8785    1.2663    0.3653 N   0  0  0  0  0  0  0  0  0  0  0  0
   -1.4091    0.0785   -0.0263 C   0  0  0  0  0  0  0  0  0  0  0  0
  1  2  4  0
  2  3  4  0
  3  4  4  0
  4  5  4  0
  5  6  4  0
  6  1  4  0
M  END
$$$$

     RDKit          3D

  6  6  0  0  0  0  0  0  0  0999 V2000
   -0.8541    1.2753   -0.3905 N   0  0  0  0  0  0  0  0  0  0  0  0
    0.4577    1.4755   -0.2737 N   0  0  0  0  0  0  0  0  0  0  0  0
    1.2718    0.4869    0.1780 C   0  0  0  0  0  0  0  0  0  0  0  0
    0.7166   -0.6992    0.5363 N   0  0  0  0  0  0  0  0  0  0  0  0
   -0.5950   -0.8987    0.4194 N   0  0  0  0  0  0  0  0  0  0  0  0
   -1.4065    0.0792   -0.0590 C   0  0  0  0  0  0  0  0  0  0  0  0
  1  2  4  0
  2  3  4  0
  3  4  4  0
  4  5  4  0
  5  6  4  0
  6  1  4  0
M  END
$$$$

     RDKit          3D

  6  6  0  0  0  0  0  0  0  0999 V2000
   -0.8541    1.2753   -0.3905 N   0  0  0  0  0  0  0  0  0  0  0  0
    0.4577    1.4755   -0.2737 N   0  0  0  0  0  0  0  0  0  0  0  0
    1.2718    0.4869    0.1780 C   0  0  0  0  0  0  0  0  0  0  0  0
    0.7166   -0.6992    0.5363 N   0  0  0  0  0  0  0  0  0  0  0  0
   -0.5950   -0.8987    0.4194 N   0  0  0  0  0  0  0  0  0  0  0  0
   -1.4065    0.0792   -0.0590 C   0  0  0  0  0  0  0  0  0  0  0  0
  1  2  4  0
  2  3  4  0
  3  4  4  0
  4  5  4  0
  5  6  4  0
  6  1  4  0
M  END
$$$$

     RDKit          3D

  6  6  0  0  0  0  0  0  0  0999 V2000
   -0.7543    1.3505   -0.6075 N   0  0  0  0  0  0  0  0  0  0  0  0
    0.5764    1.4015   -0.6352 N   0  0  0  0  0  0  0  0  0  0  0  0
    1.3183    0.3087   -0.3198 C   0  0  0  0  0  0  0  0  0  0  0  0
    0.6748   -0.8419    0.0057 N   0  0  0  0  0  0  0  0  0  0  0  0
   -0.6559   -0.8922    0.0332 N   0  0  0  0  0  0  0  0  0  0  0  0
   -1.3990    0.2013   -0.2794 C   0  0  0  0  0  0  0  0  0  0  0  0
  1  2  4  0
  2  3  4  0
  3  4  4  0
  4  5  4  0
  5  6  4  0
  6  1  4  0
M  END
$$$$

     RDKit          3D

  6  6  0  0  0  0  0  0  0  0999 V2000
   -0.7543    1.3505   -0.6075 N   0  0  0  0  0  0  0  0  0  0  0  0
    0.5764    1.4015   -0.6352 N   0  0  0  0  0  0  0  0  0  0  0  0
    1.3183    0.3087   -0.3198 C   0  0  0  0  0  0  0  0  0  0  0  0
    0.6748   -0.8419    0.0057 N   0  0  0  0  0  0  0  0  0  0  0  0
   -0.6559   -0.8922    0.0332 N   0  0  0  0  0  0  0  0  0  0  0  0
   -1.3990    0.2013   -0.2794 C   0  0  0  0  0  0  0  0  0  0  0  0
  1  2  4  0
  2  3  4  0
  3  4  4  0
  4  5  4  0
  5  6  4  0
  6  1  4  0
M  END
$$$$
