
     RDKit          3D

  6  6  0  0  0  0  0  0  0  0999 V2000
   -0.9799    0.3611   -0.7555 N   0  0  0  0  0  0  0  0  0  0  0  0
    0.3390    0.4904   -0.8882 N   0  0  0  0  0  0  0  0  0  0  0  0
    1.1789    0.0952    0.1025 C   0  0  0  0  0  0  0  0  0  0  0  0
    0.6445   -0.4537    1.2241 N   0  0  0  0  0  0  0  0  0  0  0  0
   -0.6745   -0.5834    1.3570 N   0  0  0  0  0  0  0  0  0  0  0  0
   -1.5160   -0.1764    0.3711 C   0  0  0  0  0  0  0  0  0  0  0  0
  1  2  4  0
  2  3  4  0
  3  4  4  0
  4  5  4  0
  5  6  4  0
  6  1  4  0
M  END
$$$$

     RDKit          3D

  6  6  0  0  0  0  0  0  0  0999 V2000
   -0.7678   -1.4496    0.2366 N   0  0  0  0  0  0  0  0  0  0  0  0
    0.5602   -1.3723    0.1685 N   0  0  0  0  0  0  0  0  0  0  0  0
    1.1785   -0.1757   -0.0018 C   0  0  0  0  0  0  0  0  0  0  0  0
    0.4130    0.9434   -0.0808 N   0  0  0  0  0  0  0  0  0  0  0  0
   -0.9150    0.8665   -0.0125 N   0  0  0  0  0  0  0  0  0  0  0  0
   -1.5349   -0.3321    0.1450 C   0  0  0  0  0  0  0  0  0  0  0  0
  1  2  4  0
  2  3  4  0
  3  4  4  0
  4  5  4  0
  5  6  4  0
  6  1  4  0
M  END
$$$$

     RDKit          3D

  6  6  0  0  0  0  0  0  0  0999 V2000
    0.8378    0.8104    0.5576 N   0  0  0  0  0  0  0  0  0  0  0  0
   -0.4923    0.7531    0.5975 N   0  0  0  0  0  0  0  0  0  0  0  0
   -1.1600   -0.2864    0.0331 C   0  0  0  0  0  0  0  0  0  0  0  0
   -0.4416   -1.2554   -0.5898 N   0  0  0  0  0  0  0  0  0  0  0  0
    0.8885   -1.1986   -0.6296 N   0  0  0  0  0  0  0  0  0  0  0  0
    1.5578   -0.1657   -0.0545 C   0  0  0  0  0  0  0  0  0  0  0  0
  1  2  4  0
  2  3  4  0
  3  4  4  0
  4  5  4  0
  5  6  4  0
  6  1  4  0
M  END
$$$$

     RDKit          3D

  6  6  0  0  0  0  0  0  0  0999 V2000
    0.6488   -1.0331    1.1558 N   0  0  0  0  0  0  0  0  0  0  0  0
   -0.6676   -0.8588    1.0514 N   0  0  0  0  0  0  0  0  0  0  0  0
   -1.1802    0.0714    0.2048 C   0  0  0  0  0  0  0  0  0  0  0  0
   -0.3208    0.8058   -0.5471 N   0  0  0  0  0  0  0  0  0  0  0  0
    0.9956    0.6321   -0.4427 N   0  0  0  0  0  0  0  0  0  0  0  0
    1.5096   -0.2895    0.4129 C   0  0  0  0  0  0  0  0  0  0  0  0
  1  2  4  0
  2  3  4  0
  3  4  4  0
  4  5  4  0
  5  6  4  0
  6  1  4  0
M  END
$$$$

     RDKit          3D

  6  6  0  0  0  0  0  0  0  0999 V2000
    0.7406    0.7914    1.1032 N   0  0  0  0  0  0  0  0  0  0  0  0
   -0.5866    0.7381    1.0040 N   0  0  0  0  0  0  0  0  0  0  0  0
   -1.1812    0.0066    0.0261 C   0  0  0  0  0  0  0  0  0  0  0  0
   -0.3916   -0.6529   -0.8598 N   0  0  0  0  0  0  0  0  0  0  0  0
    0.9356   -0.6000   -0.7606 N   0  0  0  0  0  0  0  0  0  0  0  0
    1.5310    0.1213    0.2246 C   0  0  0  0  0  0  0  0  0  0  0  0
  1  2  4  0
  2  3  4  0
  3  4  4  0
  4  5  4  0
  5  6  4  0
  6  1  4  0
M  END
$$$$

     RDKit          3D

  6  6  0  0  0  0  0  0  0  0999 V2000
   -0.8842   -1.3388   -0.4760 N   0  0  0  0  0  0  0  0  0  0  0  0
    0.4443   -1.3872   -0.3943 N   0  0  0  0  0  0  0  0  0  0  0  0
    1.1579   -0.2933   -0.0237 C   0  0  0  0  0  0  0  0  0  0  0  0
    0.4874    0.8576    0.2424 N   0  0  0  0  0  0  0  0  0  0  0  0
   -0.8411    0.9065    0.1605 N   0  0  0  0  0  0  0  0  0  0  0  0
   -1.5565   -0.1915   -0.1979 C   0  0  0  0  0  0  0  0  0  0  0  0
  1  2  4  0
  2  3  4  0
  3  4  4  0
  4  5  4  0
  5  6  4  0
  6  1  4  0
M  END
$$$$

     RDKit          3D

  6  6  0  0  0  0  0  0  0  0999 V2000
   -0.9185    0.3731    0.8055 N   0  0  0  0  0  0  0  0  0  0  0  0
    0.4103    0.4136    0.8877 N   0  0  0  0  0  0  0  0  0  0  0  0
    1.1835   -0.1390   -0.0827 C   0  0  0  0  0  0  0  0  0  0  0  0
    0.5710   -0.7160   -1.1482 N   0  0  0  0  0  0  0  0  0  0  0  0
   -0.7578   -0.7569   -1.2305 N   0  0  0  0  0  0  0  0  0  0  0  0
   -1.5319   -0.2154   -0.2542 C   0  0  0  0  0  0  0  0  0  0  0  0
  1  2  4  0
  2  3  4  0
  3  4  4  0
  4  5  4  0
  5  6  4  0
  6  1  4  0
M  END
$$$$

     RDKit          3D

  6  6  0  0  0  0  0  0  0  0999 V2000
    0.9673   -0.7967    0.4046 N   0  0  0  0  0  0  0  0  0  0  0  0
   -0.3550   -0.9318    0.4900 N   0  0  0  0  0  0  0  0  0  0  0  0
   -1.1843    0.0173   -0.0145 C   0  0  0  0  0  0  0  0  0  0  0  0
   -0.6347    1.1177   -0.5906 N   0  0  0  0  0  0  0  0  0  0  0  0
    0.6876    1.2533   -0.6760 N   0  0  0  0  0  0  0  0  0  0  0  0
    1.5178    0.2978   -0.1826 C   0  0  0  0  0  0  0  0  0  0  0  0
  1  2  4  0
  2  3  4  0
  3  4  4  0
  4  5  4  0
  5  6  4  0
  6  1  4  0
M  END
$$$$

     RDKit          3D

  6  6  0  0  0  0  0  0  0  0999 V2000
   -0.7261   -0.9699   -1.0495 N   0  0  0  0  0  0  0  0  0  0  0  0
    0.6002   -0.9121   -0.9407 N   0  0  0  0  0  0  0  0  0  0  0  0
    1.1860   -0.1530    0.0203 C   0  0  0  0  0  0  0  0  0  0  0  0
    0.3890    0.5623    0.8559 N   0  0  0  0  0  0  0  0  0  0  0  0
   -0.9373    0.5050    0.7472 N   0  0  0  0  0  0  0  0  0  0  0  0
   -1.5242   -0.2646   -0.2062 C   0  0  0  0  0  0  0  0  0  0  0  0
  1  2  4  0
  2  3  4  0
  3  4  4  0
  4  5  4  0
  5  6  4  0
  6  1  4  0
M  END
$$$$

     RDKit          3D

  6  6  0  0  0  0  0  0  0  0999 V2000
   -0.8922    0.7589   -0.5446 N   0  0  0  0  0  0  0  0  0  0  0  0
    0.4378    0.8301   -0.5298 N   0  0  0  0  0  0  0  0  0  0  0  0
    1.1719   -0.0413    0.2083 C   0  0  0  0  0  0  0  0  0  0  0  0
    0.5201   -1.0003    0.9156 N   0  0  0  0  0  0  0  0  0  0  0  0
   -0.8099   -1.0721    0.9008 N   0  0  0  0  0  0  0  0  0  0  0  0
   -1.5455   -0.1923    0.1723 C   0  0  0  0  0  0  0  0  0  0  0  0
  1  2  4  0
  2  3  4  0
  3  4  4  0
  4  5  4  0
  5  6  4  0
  6  1  4  0
M  END
$$$$

     RDKit          3D

  4  3  0  0  0  0  0  0  0  0999 V2000
    0.3299    0.0999   -1.7355 F   0  0  0  0  0  0  0  0  0  0  0  0
    0.5204    0.0459   -0.3922 C   0  0  0  0  0  0  0  0  0  0  0  0
   -0.5204   -0.0459    0.4392 C   0  0  0  0  0  0  0  0  0  0  0  0
   -0.3299   -0.0999    1.7825 F   0  0  0  0  0  0  0  0  0  0  0  0
  1  2  1  0
  2  3  2  0
  3  4  1  0
M  END
$$$$

     RDKit          3D

  4  3  0  0  0  0  0  0  0  0999 V2000
    0.8574   -0.8629   -1.2528 F   0  0  0  0  0  0  0  0  0  0  0  0
    0.6322   -0.0575   -0.1830 C   0  0  0  0  0  0  0  0  0  0  0  0
   -0.6120    0.2817    0.1630 C   0  0  0  0  0  0  0  0  0  0  0  0
   -0.8372    1.0870    1.2328 F   0  0  0  0  0  0  0  0  0  0  0  0
  1  2  1  0
  2  3  2  0
  3  4  1  0
M  END
$$$$

     RDKit          3D

  4  3  0  0  0  0  0  0  0  0999 V2000
    0.1265   -1.7683   -0.6213 F   0  0  0  0  0  0  0  0  0  0  0  0
    0.4001   -0.4760   -0.3070 C   0  0  0  0  0  0  0  0  0  0  0  0
   -0.4084    0.5076   -0.7091 C   0  0  0  0  0  0  0  0  0  0  0  0
   -0.1349    1.7999   -0.3948 F   0  0  0  0  0  0  0  0  0  0  0  0
  1  2  1  0
  2  3  2  0
  3  4  1  0
M  END
$$$$

     RDKit          3D

  4  3  0  0  0  0  0  0  0  0999 V2000
    1.0446   -0.0260   -1.6109 F   0  0  0  0  0  0  0  0  0  0  0  0
    0.6436    0.0700   -0.3172 C   0  0  0  0  0  0  0  0  0  0  0  0
   -0.6443   -0.0668    0.0077 C   0  0  0  0  0  0  0  0  0  0  0  0
   -1.0452    0.0291    1.3014 F   0  0  0  0  0  0  0  0  0  0  0  0
  1  2  1  0
  2  3  2  0
  3  4  1  0
M  END
$$$$

     RDKit          3D

  4  3  0  0  0  0  0  0  0  0999 V2000
    1.5752   -2.0895    2.3143 F   0  0  0  0  0  0  0  0  0  0  0  0
    0.9467   -1.1643    1.5476 C   0  0  0  0  0  0  0  0  0  0  0  0
    0.6275    0.0213    2.0788 C   0  0  0  0  0  0  0  0  0  0  0  0
    0.9384    0.2758    3.3741 F   0  0  0  0  0  0  0  0  0  0  0  0
  1  2  1  0
  2  3  2  0
  3  4  1  0
M  END
$$$$

     RDKit          3D

  4  3  0  0  0  0  0  0  0  0999 V2000
    1.2868   -2.4433   -2.2319 F   0  0  0  0  0  0  0  0  0  0  0  0
    0.6354   -1.5403   -1.4576 C   0  0  0  0  0  0  0  0  0  0  0  0
   -0.6881   -1.6477   -1.2959 C   0  0  0  0  0  0  0  0  0  0  0  0
   -1.3541   -2.6568   -1.9101 F   0  0  0  0  0  0  0  0  0  0  0  0
  1  2  1  0
  2  3  2  0
  3  4  1  0
M  END
$$$$

     RDKit          3D

  4  3  0  0  0  0  0  0  0  0999 V2000
   -1.1090   -3.1483   -0.5259 F   0  0  0  0  0  0  0  0  0  0  0  0
   -0.5512   -1.9279   -0.3309 C   0  0  0  0  0  0  0  0  0  0  0  0
    0.5990   -1.6262   -0.9437 C   0  0  0  0  0  0  0  0  0  0  0  0
    1.1856   -2.5464   -1.7486 F   0  0  0  0  0  0  0  0  0  0  0  0
  1  2  1  0
  2  3  2  0
  3  4  1  0
M  END
$$$$
