
     RDKit          3D

  6  6  0  0  0  0  0  0  0  0999 V2000
   -0.9799    0.3611   -0.7555 N   0  0  0  0  0  0  0  0  0  0  0  0
    0.3390    0.4904   -0.8882 N   0  0  0  0  0  0  0  0  0  0  0  0
    1.1789    0.0952    0.1025 C   0  0  0  0  0  0  0  0  0  0  0  0
    0.6445   -0.4537    1.2241 N   0  0  0  0  0  0  0  0  0  0  0  0
   -0.6745   -0.5834    1.3570 N   0  0  0  0  0  0  0  0  0  0  0  0
   -1.5160   -0.1764    0.3711 C   0  0  0  0  0  0  0  0  0  0  0  0
  1  2  4  0
  2  3  4  0
  3  4  4  0
  4  5  4  0
  5  6  4  0
  6  1  4  0
M  END
$$$$

     RDKit          3D

  4  3  0  0  0  0  0  0  0  0999 V2000
    0.3299    0.0999   -1.7355 F   0  0  0  0  0  0  0  0  0  0  0  0
    0.5204    0.0459   -0.3922 C   0  0  0  0  0  0  0  0  0  0  0  0
   -0.5204   -0.0459    0.4392 C   0  0  0  0  0  0  0  0  0  0  0  0
   -0.3299   -0.0999    1.7825 F   0  0  0  0  0  0  0  0  0  0  0  0
  1  2  1  0
  2  3  2  0
  3  4  1  0
M  END
$$$$

     RDKit          3D

  4  3  0  0  0  0  0  0  0  0999 V2000
   -1.2128   -2.6043    2.5299 O   0  0  0  0  0  0  0  0  0  0  0  0
   -0.6228   -1.6484    1.7024 C   0  0  0  0  0  0  0  0  0  0  0  0
    0.6357   -1.2334    1.9741 C   0  0  0  0  0  0  0  0  0  0  0  0
    1.2882   -1.6763    3.1279 O   0  0  0  0  0  0  0  0  0  0  0  0
  1  2  1  0
  2  3  2  0
  3  4  1  0
M  END
$$$$

     RDKit          3D

  6  6  0  0  0  0  0  0  0  0999 V2000
   -0.9922   -0.6602   -0.6044 N   0  0  0  0  0  0  0  0  0  0  0  0
    0.2278   -0.5626   -1.1299 N   0  0  0  0  0  0  0  0  0  0  0  0
    1.2013    0.1435   -0.5000 C   0  0  0  0  0  0  0  0  0  0  0  0
    0.9087    0.7283    0.6906 N   0  0  0  0  0  0  0  0  0  0  0  0
   -0.3114    0.6306    1.2161 N   0  0  0  0  0  0  0  0  0  0  0  0
   -1.2918   -0.0561    0.5738 C   0  0  0  0  0  0  0  0  0  0  0  0
  1  2  4  0
  2  3  4  0
  3  4  4  0
  4  5  4  0
  5  6  4  0
  6  1  4  0
M  END
$$$$

     RDKit          3D

  3  2  0  0  0  0  0  0  0  0999 V2000
   -1.3513    3.3513   -1.6813 N   0  0  0  0  0  0  0  0  0  0  0  0
   -0.6925    2.2196   -1.1007 C   0  0  0  0  0  0  0  0  0  0  0  0
    0.6497    2.1304   -1.1822 C   0  0  0  0  0  0  0  0  0  0  0  0
  1  2  1  0
  2  3  2  0
M  END
$$$$

     RDKit          3D

  6  6  0  0  0  0  0  0  0  0999 V2000
   -0.1442   -1.0176    0.3045 N   0  0  0  0  0  0  0  0  0  0  0  0
    1.1757   -1.1955    0.3241 N   0  0  0  0  0  0  0  0  0  0  0  0
    2.0178   -0.1910   -0.0329 C   0  0  0  0  0  0  0  0  0  0  0  0
    1.4823    1.0007   -0.4051 N   0  0  0  0  0  0  0  0  0  0  0  0
    0.1624    1.1783   -0.4243 N   0  0  0  0  0  0  0  0  0  0  0  0
   -0.6793    0.1703   -0.0797 C   0  0  0  0  0  0  0  0  0  0  0  0
  1  2  4  0
  2  3  4  0
  3  4  4  0
  4  5  4  0
  5  6  4  0
  6  1  4  0
M  END
$$$$

     RDKit          3D

  6  6  0  0  0  0  0  0  0  0999 V2000
    0.8630    0.1591    1.2926 N   0  0  0  0  0  0  0  0  0  0  0  0
   -0.4505    0.3290    1.4352 N   0  0  0  0  0  0  0  0  0  0  0  0
   -1.2742    0.2990    0.3559 C   0  0  0  0  0  0  0  0  0  0  0  0
   -0.7272    0.1224   -0.8743 N   0  0  0  0  0  0  0  0  0  0  0  0
    0.5862   -0.0474   -1.0162 N   0  0  0  0  0  0  0  0  0  0  0  0
    1.4076   -0.0461    0.0650 C   0  0  0  0  0  0  0  0  0  0  0  0
  1  2  4  0
  2  3  4  0
  3  4  4  0
  4  5  4  0
  5  6  4  0
  6  1  4  0
M  END
$$$$

     RDKit          3D

  3  2  0  0  0  0  0  0  0  0999 V2000
   -0.9193   -3.2910    1.7996 C   0  0  0  0  0  0  0  0  0  0  0  0
   -0.2281   -2.2280    0.9932 C   0  0  0  0  0  0  0  0  0  0  0  0
    1.0077   -2.4746    0.5146 C   0  0  0  0  0  0  0  0  0  0  0  0
  1  2  1  0
  2  3  2  0
M  END
$$$$

     RDKit          3D

  4  3  0  0  0  0  0  0  0  0999 V2000
   -3.3014   -3.8378   -0.3692 N   0  0  0  0  0  0  0  0  0  0  0  0
   -2.4522   -3.0559   -0.2873 C   0  0  0  0  0  0  0  0  0  0  0  0
   -1.3944   -2.0806   -0.1857 C   0  0  0  0  0  0  0  0  0  0  0  0
   -0.1420   -2.5069    0.0623 C   0  0  0  0  0  0  0  0  0  0  0  0
  1  2  3  0
  2  3  1  0
  3  4  2  0
M  END
$$$$

     RDKit          3D

  4  3  0  0  0  0  0  0  0  0999 V2000
    1.2493   -4.0205   -1.0008 N   0  0  0  0  0  0  0  0  0  0  0  0
    0.8521   -2.9571   -0.7754 C   0  0  0  0  0  0  0  0  0  0  0  0
    0.3585   -1.6349   -0.4949 C   0  0  0  0  0  0  0  0  0  0  0  0
   -0.6083   -1.1103   -1.2594 C   0  0  0  0  0  0  0  0  0  0  0  0
  1  2  3  0
  2  3  1  0
  3  4  2  0
M  END
$$$$

     RDKit          3D

  6  6  0  0  0  0  0  0  0  0999 V2000
    1.1924   -0.0792    1.5110 N   0  0  0  0  0  0  0  0  0  0  0  0
   -0.1358   -0.1449    1.4321 N   0  0  0  0  0  0  0  0  0  0  0  0
   -0.7673    0.0108    0.2399 C   0  0  0  0  0  0  0  0  0  0  0  0
   -0.0159    0.2002   -0.8736 N   0  0  0  0  0  0  0  0  0  0  0  0
    1.3118    0.2661   -0.7948 N   0  0  0  0  0  0  0  0  0  0  0  0
    1.9422    0.1447    0.4009 C   0  0  0  0  0  0  0  0  0  0  0  0
  1  2  4  0
  2  3  4  0
  3  4  4  0
  4  5  4  0
  5  6  4  0
  6  1  4  0
M  END
$$$$

     RDKit          3D

  6  6  0  0  0  0  0  0  0  0999 V2000
   -1.3887    1.6395    1.1879 N   0  0  0  0  0  0  0  0  0  0  0  0
   -0.0573    1.6542    1.1460 N   0  0  0  0  0  0  0  0  0  0  0  0
    0.6140    0.9448    0.2023 C   0  0  0  0  0  0  0  0  0  0  0  0
   -0.1004    0.2498   -0.7179 N   0  0  0  0  0  0  0  0  0  0  0  0
   -1.4314    0.2349   -0.6761 N   0  0  0  0  0  0  0  0  0  0  0  0
   -2.1025    0.9152    0.2875 C   0  0  0  0  0  0  0  0  0  0  0  0
  1  2  4  0
  2  3  4  0
  3  4  4  0
  4  5  4  0
  5  6  4  0
  6  1  4  0
M  END
$$$$

     RDKit          3D

  4  3  0  0  0  0  0  0  0  0999 V2000
   -0.6227   -2.8825    1.1227 C   0  0  0  0  0  0  0  0  0  0  0  0
   -0.8705   -2.1770   -0.2083 C   0  0  0  0  0  0  0  0  0  0  0  0
   -0.2019   -0.8271   -0.2445 C   0  0  0  0  0  0  0  0  0  0  0  0
    1.1335   -0.7368   -0.3536 C   0  0  0  0  0  0  0  0  0  0  0  0
  1  2  1  0
  2  3  1  0
  3  4  2  0
M  END
$$$$

     RDKit          3D

  6  6  0  0  0  0  0  0  0  0999 V2000
    1.1027   -0.3131   -0.8701 N   0  0  0  0  0  0  0  0  0  0  0  0
   -0.2252   -0.2151   -0.8991 N   0  0  0  0  0  0  0  0  0  0  0  0
   -0.8838    0.5477    0.0108 C   0  0  0  0  0  0  0  0  0  0  0  0
   -0.1580    1.2324    0.9319 N   0  0  0  0  0  0  0  0  0  0  0  0
    1.1702    1.1341    0.9602 N   0  0  0  0  0  0  0  0  0  0  0  0
    1.8279    0.3484    0.0681 C   0  0  0  0  0  0  0  0  0  0  0  0
  1  2  4  0
  2  3  4  0
  3  4  4  0
  4  5  4  0
  5  6  4  0
  6  1  4  0
M  END
$$$$

     RDKit          3D

  8  8  0  0  0  0  0  0  0  0999 V2000
    0.1678    1.9250    2.2712 C   0  0  0  0  0  0  0  0  0  0  0  0
   -0.4758    2.4700    1.2122 C   0  0  0  0  0  0  0  0  0  0  0  0
   -0.9962    3.8655    1.2999 C   0  0  0  0  0  0  0  0  0  0  0  0
   -2.2080    4.2104    0.6705 C   0  0  0  0  0  0  0  0  0  0  0  0
   -2.6884    5.5222    0.7261 C   0  0  0  0  0  0  0  0  0  0  0  0
   -1.9683    6.5054    1.4060 C   0  0  0  0  0  0  0  0  0  0  0  0
   -0.7665    6.1785    2.0335 C   0  0  0  0  0  0  0  0  0  0  0  0
   -0.2769    4.8697    1.9790 C   0  0  0  0  0  0  0  0  0  0  0  0
  1  2  2  0
  2  3  1  0
  3  4  4  0
  4  5  4  0
  5  6  4  0
  6  7  4  0
  7  8  4  0
  8  3  4  0
M  END
$$$$

     RDKit          3D

  4  3  0  0  0  0  0  0  0  0999 V2000
   -1.0316   -1.2201   -1.6494 Cl  0  0  0  0  0  0  0  0  0  0  0  0
    0.1487   -0.5269   -0.5410 C   0  0  0  0  0  0  0  0  0  0  0  0
   -0.1487    0.5269    0.2366 C   0  0  0  0  0  0  0  0  0  0  0  0
    1.0316    1.2201    1.3449 Cl  0  0  0  0  0  0  0  0  0  0  0  0
  1  2  1  0
  2  3  2  0
  3  4  1  0
M  END
$$$$

     RDKit          3D

  7  7  0  0  0  0  0  0  0  0999 V2000
   -1.2373    1.5843    2.0068 F   0  0  0  0  0  0  0  0  0  0  0  0
   -0.6389    0.8188    1.0587 C   0  0  0  0  0  0  0  0  0  0  0  0
    0.7545    0.7010    1.0618 C   0  0  0  0  0  0  0  0  0  0  0  0
    1.4057   -0.1059    0.1138 C   0  0  0  0  0  0  0  0  0  0  0  0
    0.6362   -0.8030   -0.8319 C   0  0  0  0  0  0  0  0  0  0  0  0
   -0.7561   -0.6870   -0.8369 C   0  0  0  0  0  0  0  0  0  0  0  0
   -1.4075    0.1243    0.1065 C   0  0  0  0  0  0  0  0  0  0  0  0
  1  2  1  0
  2  3  4  0
  3  4  4  0
  4  5  4  0
  5  6  4  0
  6  7  4  0
  7  2  4  0
M  END
$$$$

     RDKit          3D

  6  6  0  0  0  0  0  0  0  0999 V2000
    0.8630    0.1591    1.2926 N   0  0  0  0  0  0  0  0  0  0  0  0
   -0.4505    0.3290    1.4352 N   0  0  0  0  0  0  0  0  0  0  0  0
   -1.2742    0.2990    0.3559 C   0  0  0  0  0  0  0  0  0  0  0  0
   -0.7272    0.1224   -0.8743 N   0  0  0  0  0  0  0  0  0  0  0  0
    0.5862   -0.0474   -1.0162 N   0  0  0  0  0  0  0  0  0  0  0  0
    1.4076   -0.0461    0.0650 C   0  0  0  0  0  0  0  0  0  0  0  0
  1  2  4  0
  2  3  4  0
  3  4  4  0
  4  5  4  0
  5  6  4  0
  6  1  4  0
M  END
$$$$

     RDKit          3D

  3  2  0  0  0  0  0  0  0  0999 V2000
    1.0849   -3.4948   -0.6729 N   0  0  0  0  0  0  0  0  0  0  0  0
    0.5396   -2.1977   -0.4034 C   0  0  0  0  0  0  0  0  0  0  0  0
   -0.7988   -2.0496   -0.3509 C   0  0  0  0  0  0  0  0  0  0  0  0
  1  2  1  0
  2  3  2  0
M  END
$$$$

     RDKit          3D

  6  6  0  0  0  0  0  0  0  0999 V2000
    0.7821   -1.0506    0.0604 N   0  0  0  0  0  0  0  0  0  0  0  0
   -0.5431   -1.1850    0.0616 N   0  0  0  0  0  0  0  0  0  0  0  0
   -1.3526   -0.1189   -0.1725 C   0  0  0  0  0  0  0  0  0  0  0  0
   -0.7751    1.0879   -0.4078 N   0  0  0  0  0  0  0  0  0  0  0  0
    0.5499    1.2233   -0.4093 N   0  0  0  0  0  0  0  0  0  0  0  0
    1.3577    0.1568   -0.1751 C   0  0  0  0  0  0  0  0  0  0  0  0
  1  2  4  0
  2  3  4  0
  3  4  4  0
  4  5  4  0
  5  6  4  0
  6  1  4  0
M  END
$$$$

     RDKit          3D

  6  6  0  0  0  0  0  0  0  0999 V2000
   -0.6686   -1.0241    0.5872 N   0  0  0  0  0  0  0  0  0  0  0  0
    0.6621   -1.0467    0.5335 N   0  0  0  0  0  0  0  0  0  0  0  0
    1.3534   -0.0335   -0.0493 C   0  0  0  0  0  0  0  0  0  0  0  0
    0.6519    1.0040   -0.5761 N   0  0  0  0  0  0  0  0  0  0  0  0
   -0.6787    1.0265   -0.5225 N   0  0  0  0  0  0  0  0  0  0  0  0
   -1.3697    0.0130    0.0604 C   0  0  0  0  0  0  0  0  0  0  0  0
  1  2  4  0
  2  3  4  0
  3  4  4  0
  4  5  4  0
  5  6  4  0
  6  1  4  0
M  END
$$$$

     RDKit          3D

  4  3  0  0  0  0  0  0  0  0999 V2000
   -0.3534   -1.8038   -1.8841 C   0  0  0  0  0  0  0  0  0  0  0  0
    0.5144   -0.9902   -1.1015 O   0  0  0  0  0  0  0  0  0  0  0  0
    0.1190   -0.3077    0.0597 C   0  0  0  0  0  0  0  0  0  0  0  0
    1.0422    0.2760    0.8410 C   0  0  0  0  0  0  0  0  0  0  0  0
  1  2  1  0
  2  3  1  0
  3  4  2  0
M  END
$$$$

     RDKit          3D

  7  7  0  0  0  0  0  0  0  0999 V2000
   -1.4831   -1.9398   -1.1905 F   0  0  0  0  0  0  0  0  0  0  0  0
   -0.7654   -0.9935   -0.5330 C   0  0  0  0  0  0  0  0  0  0  0  0
    0.6304   -1.0778   -0.5343 C   0  0  0  0  0  0  0  0  0  0  0  0
    1.4062   -0.1002    0.1107 C   0  0  0  0  0  0  0  0  0  0  0  0
    0.7602    0.9714    0.7485 C   0  0  0  0  0  0  0  0  0  0  0  0
   -0.6343    1.0580    0.7511 C   0  0  0  0  0  0  0  0  0  0  0  0
   -1.4108    0.0777    0.1119 C   0  0  0  0  0  0  0  0  0  0  0  0
  1  2  1  0
  2  3  4  0
  3  4  4  0
  4  5  4  0
  5  6  4  0
  6  7  4  0
  7  2  4  0
M  END
$$$$

     RDKit          3D

  6  6  0  0  0  0  0  0  0  0999 V2000
    0.5740   -0.5232   -0.9397 N   0  0  0  0  0  0  0  0  0  0  0  0
    1.8794   -0.6866   -0.7314 N   0  0  0  0  0  0  0  0  0  0  0  0
    2.5085   -0.0348    0.2811 C   0  0  0  0  0  0  0  0  0  0  0  0
    1.7738    0.7825    1.0799 N   0  0  0  0  0  0  0  0  0  0  0  0
    0.4684    0.9460    0.8710 N   0  0  0  0  0  0  0  0  0  0  0  0
   -0.1558    0.3058   -0.1511 C   0  0  0  0  0  0  0  0  0  0  0  0
  1  2  4  0
  2  3  4  0
  3  4  4  0
  4  5  4  0
  5  6  4  0
  6  1  4  0
M  END
$$$$

     RDKit          3D

  6  6  0  0  0  0  0  0  0  0999 V2000
   -0.3256    0.8399   -0.9839 N   0  0  0  0  0  0  0  0  0  0  0  0
    1.0036    0.9169   -1.0235 N   0  0  0  0  0  0  0  0  0  0  0  0
    1.7672    0.1964   -0.1614 C   0  0  0  0  0  0  0  0  0  0  0  0
    1.1437   -0.5839    0.7582 N   0  0  0  0  0  0  0  0  0  0  0  0
   -0.1853   -0.6609    0.7979 N   0  0  0  0  0  0  0  0  0  0  0  0
   -0.9481    0.0391   -0.0804 C   0  0  0  0  0  0  0  0  0  0  0  0
  1  2  4  0
  2  3  4  0
  3  4  4  0
  4  5  4  0
  5  6  4  0
  6  1  4  0
M  END
$$$$

     RDKit          3D

  7  7  0  0  0  0  0  0  0  0999 V2000
   -1.2121   -2.5050   -0.2663 C   0  0  0  0  0  0  0  0  0  0  0  0
   -0.4620   -1.1996   -0.2225 C   0  0  0  0  0  0  0  0  0  0  0  0
   -1.1458    0.0355   -0.1616 C   0  0  0  0  0  0  0  0  0  0  0  0
   -0.4152    1.2306   -0.1175 C   0  0  0  0  0  0  0  0  0  0  0  0
    0.9798    1.2096   -0.1244 C   0  0  0  0  0  0  0  0  0  0  0  0
    1.6743   -0.0098   -0.1711 C   0  0  0  0  0  0  0  0  0  0  0  0
    0.9431   -1.2099   -0.2159 C   0  0  0  0  0  0  0  0  0  0  0  0
  1  2  1  0
  2  3  4  0
  3  4  4  0
  4  5  4  0
  5  6  4  0
  6  7  4  0
  7  2  4  0
M  END
$$$$

     RDKit          3D

  6  6  0  0  0  0  0  0  0  0999 V2000
   -1.1535   -1.3134    0.8390 N   0  0  0  0  0  0  0  0  0  0  0  0
    0.1218   -1.6853    0.7411 N   0  0  0  0  0  0  0  0  0  0  0  0
    0.9486   -1.0878   -0.1538 C   0  0  0  0  0  0  0  0  0  0  0  0
    0.4422   -0.1308   -0.9697 N   0  0  0  0  0  0  0  0  0  0  0  0
   -0.8339    0.2378   -0.8737 N   0  0  0  0  0  0  0  0  0  0  0  0
   -1.6552   -0.3340    0.0417 C   0  0  0  0  0  0  0  0  0  0  0  0
  1  2  4  0
  2  3  4  0
  3  4  4  0
  4  5  4  0
  5  6  4  0
  6  1  4  0
M  END
$$$$

     RDKit          3D

  6  6  0  0  0  0  0  0  0  0999 V2000
    1.4111   -0.0837   -0.0808 C   0  0  0  0  0  0  0  0  0  0  0  0
    0.7175    0.5050   -1.1523 C   0  0  0  0  0  0  0  0  0  0  0  0
   -0.6770    0.5945   -1.1330 C   0  0  0  0  0  0  0  0  0  0  0  0
   -1.4103    0.0975   -0.0416 C   0  0  0  0  0  0  0  0  0  0  0  0
   -0.7167   -0.4911    1.0300 C   0  0  0  0  0  0  0  0  0  0  0  0
    0.6778   -0.5807    1.0106 C   0  0  0  0  0  0  0  0  0  0  0  0
  1  2  4  0
  2  3  4  0
  3  4  4  0
  4  5  4  0
  5  6  4  0
  6  1  4  0
M  END
$$$$

     RDKit          3D

  6  6  0  0  0  0  0  0  0  0999 V2000
   -0.3655    1.2762    0.2081 N   0  0  0  0  0  0  0  0  0  0  0  0
    0.8890    0.9974   -0.1422 N   0  0  0  0  0  0  0  0  0  0  0  0
    1.2824   -0.2848   -0.3478 C   0  0  0  0  0  0  0  0  0  0  0  0
    0.3654   -1.2766   -0.2084 N   0  0  0  0  0  0  0  0  0  0  0  0
   -0.8891   -0.9978    0.1419 N   0  0  0  0  0  0  0  0  0  0  0  0
   -1.2825    0.2844    0.3475 C   0  0  0  0  0  0  0  0  0  0  0  0
  1  2  4  0
  2  3  4  0
  3  4  4  0
  4  5  4  0
  5  6  4  0
  6  1  4  0
M  END
$$$$

     RDKit          3D

  6  6  0  0  0  0  0  0  0  0999 V2000
   -0.7239   -1.1220    0.1799 N   0  0  0  0  0  0  0  0  0  0  0  0
    0.6058   -1.1911    0.1430 N   0  0  0  0  0  0  0  0  0  0  0  0
    1.3592   -0.0622    0.0847 C   0  0  0  0  0  0  0  0  0  0  0  0
    0.7248    1.1388    0.0649 N   0  0  0  0  0  0  0  0  0  0  0  0
   -0.6049    1.2080    0.1019 N   0  0  0  0  0  0  0  0  0  0  0  0
   -1.3584    0.0791    0.1602 C   0  0  0  0  0  0  0  0  0  0  0  0
  1  2  4  0
  2  3  4  0
  3  4  4  0
  4  5  4  0
  5  6  4  0
  6  1  4  0
M  END
$$$$

     RDKit          3D

  6  6  0  0  0  0  0  0  0  0999 V2000
   -0.7239   -1.1220    0.1799 N   0  0  0  0  0  0  0  0  0  0  0  0
    0.6058   -1.1911    0.1430 N   0  0  0  0  0  0  0  0  0  0  0  0
    1.3592   -0.0622    0.0847 C   0  0  0  0  0  0  0  0  0  0  0  0
    0.7248    1.1388    0.0649 N   0  0  0  0  0  0  0  0  0  0  0  0
   -0.6049    1.2080    0.1019 N   0  0  0  0  0  0  0  0  0  0  0  0
   -1.3584    0.0791    0.1602 C   0  0  0  0  0  0  0  0  0  0  0  0
  1  2  4  0
  2  3  4  0
  3  4  4  0
  4  5  4  0
  5  6  4  0
  6  1  4  0
M  END
$$$$

     RDKit          3D

  6  6  0  0  0  0  0  0  0  0999 V2000
   -0.6166    0.1244    1.1846 N   0  0  0  0  0  0  0  0  0  0  0  0
    0.7092    0.0203    1.1123 N   0  0  0  0  0  0  0  0  0  0  0  0
    1.3437    0.0166   -0.0891 C   0  0  0  0  0  0  0  0  0  0  0  0
    0.5904    0.1219   -1.2141 N   0  0  0  0  0  0  0  0  0  0  0  0
   -0.7355    0.2259   -1.1417 N   0  0  0  0  0  0  0  0  0  0  0  0
   -1.3697    0.2296    0.0593 C   0  0  0  0  0  0  0  0  0  0  0  0
  1  2  4  0
  2  3  4  0
  3  4  4  0
  4  5  4  0
  5  6  4  0
  6  1  4  0
M  END
$$$$

     RDKit          3D

  3  2  0  0  0  0  0  0  0  0999 V2000
    1.7894   -3.0327    2.3993 Cl  0  0  0  0  0  0  0  0  0  0  0  0
    0.8636   -1.8878    1.4409 C   0  0  0  0  0  0  0  0  0  0  0  0
   -0.4746   -1.8783    1.5668 C   0  0  0  0  0  0  0  0  0  0  0  0
  1  2  1  0
  2  3  2  0
M  END
$$$$

     RDKit          3D

  7  7  0  0  0  0  0  0  0  0999 V2000
    1.3683   -0.5322    2.4621 N   0  0  0  0  0  0  0  0  0  0  0  0
    0.7152   -0.2034    1.2285 C   0  0  0  0  0  0  0  0  0  0  0  0
   -0.6855   -0.1279    1.1955 C   0  0  0  0  0  0  0  0  0  0  0  0
   -1.3538    0.2154    0.0126 C   0  0  0  0  0  0  0  0  0  0  0  0
   -0.6179    0.4894   -1.1462 C   0  0  0  0  0  0  0  0  0  0  0  0
    0.7756    0.4147   -1.1261 C   0  0  0  0  0  0  0  0  0  0  0  0
    1.4530    0.0599    0.0507 C   0  0  0  0  0  0  0  0  0  0  0  0
  1  2  1  0
  2  3  4  0
  3  4  4  0
  4  5  4  0
  5  6  4  0
  6  7  4  0
  7  2  4  0
M  END
$$$$

     RDKit          3D

  5  4  0  0  0  0  0  0  0  0999 V2000
   -3.8398    0.1926   -0.8083 C   0  0  0  0  0  0  0  0  0  0  0  0
   -2.3185    0.2415   -0.9153 C   0  0  0  0  0  0  0  0  0  0  0  0
   -1.6565   -0.4707    0.2709 C   0  0  0  0  0  0  0  0  0  0  0  0
   -0.1542   -0.3950    0.1792 C   0  0  0  0  0  0  0  0  0  0  0  0
    0.5056   -1.1326   -0.7285 C   0  0  0  0  0  0  0  0  0  0  0  0
  1  2  1  0
  2  3  1  0
  3  4  1  0
  4  5  2  0
M  END
$$$$

     RDKit          3D

  6  6  0  0  0  0  0  0  0  0999 V2000
   -1.6650   -0.4076   -0.5830 N   0  0  0  0  0  0  0  0  0  0  0  0
   -0.3596   -0.6437   -0.6937 N   0  0  0  0  0  0  0  0  0  0  0  0
    0.5444    0.3154   -0.3772 C   0  0  0  0  0  0  0  0  0  0  0  0
    0.0947    1.5238    0.0447 N   0  0  0  0  0  0  0  0  0  0  0  0
   -1.2121    1.7616    0.1458 N   0  0  0  0  0  0  0  0  0  0  0  0
   -2.1200    0.7958   -0.1476 C   0  0  0  0  0  0  0  0  0  0  0  0
  1  2  4  0
  2  3  4  0
  3  4  4  0
  4  5  4  0
  5  6  4  0
  6  1  4  0
M  END
$$$$

     RDKit          3D

  6  6  0  0  0  0  0  0  0  0999 V2000
   -0.5501   -0.3931   -0.1964 N   0  0  0  0  0  0  0  0  0  0  0  0
    0.7758   -0.4640   -0.0921 N   0  0  0  0  0  0  0  0  0  0  0  0
    1.5058    0.6207    0.2762 C   0  0  0  0  0  0  0  0  0  0  0  0
    0.8468    1.7791    0.5418 N   0  0  0  0  0  0  0  0  0  0  0  0
   -0.4792    1.8510    0.4379 N   0  0  0  0  0  0  0  0  0  0  0  0
   -1.2069    0.7664    0.0655 C   0  0  0  0  0  0  0  0  0  0  0  0
  1  2  4  0
  2  3  4  0
  3  4  4  0
  4  5  4  0
  5  6  4  0
  6  1  4  0
M  END
$$$$

     RDKit          3D

  6  6  0  0  0  0  0  0  0  0999 V2000
   -0.6875    0.3922    1.0612 N   0  0  0  0  0  0  0  0  0  0  0  0
    0.6435    0.4372    1.0759 N   0  0  0  0  0  0  0  0  0  0  0  0
    1.3660    0.0390   -0.0029 C   0  0  0  0  0  0  0  0  0  0  0  0
    0.6960   -0.4063   -1.0972 N   0  0  0  0  0  0  0  0  0  0  0  0
   -0.6351   -0.4512   -1.1120 N   0  0  0  0  0  0  0  0  0  0  0  0
   -1.3579   -0.0531   -0.0334 C   0  0  0  0  0  0  0  0  0  0  0  0
  1  2  4  0
  2  3  4  0
  3  4  4  0
  4  5  4  0
  5  6  4  0
  6  1  4  0
M  END
$$$$

     RDKit          3D

  3  2  0  0  0  0  0  0  0  0999 V2000
    0.5707    3.7551   -0.4703 C   0  0  0  0  0  0  0  0  0  0  0  0
    0.2260    2.2915   -0.4505 C   0  0  0  0  0  0  0  0  0  0  0  0
   -0.9384    1.8921   -1.0007 C   0  0  0  0  0  0  0  0  0  0  0  0
  1  2  1  0
  2  3  2  0
M  END
$$$$

     RDKit          3D

 10 10  0  0  0  0  0  0  0  0999 V2000
   -1.1575   -2.1129   -2.3232 C   0  0  0  0  0  0  0  0  0  0  0  0
   -1.2190   -0.5899   -2.3748 C   0  0  0  0  0  0  0  0  0  0  0  0
   -0.5325    0.0245   -1.1746 C   0  0  0  0  0  0  0  0  0  0  0  0
    0.8450    0.2819   -1.2459 C   0  0  0  0  0  0  0  0  0  0  0  0
    1.5376    0.8312   -0.1579 C   0  0  0  0  0  0  0  0  0  0  0  0
    0.8417    1.1335    1.0353 C   0  0  0  0  0  0  0  0  0  0  0  0
    1.5473    1.6435    2.2720 C   0  0  0  0  0  0  0  0  0  0  0  0
    2.0853    0.4829    3.1031 C   0  0  0  0  0  0  0  0  0  0  0  0
   -0.5309    0.8556    1.1136 C   0  0  0  0  0  0  0  0  0  0  0  0
   -1.2196    0.2924    0.0315 C   0  0  0  0  0  0  0  0  0  0  0  0
  1  2  1  0
  2  3  1  0
  3  4  4  0
  4  5  4  0
  5  6  4  0
  6  7  1  0
  7  8  1  0
  6  9  4  0
  9 10  4  0
 10  3  4  0
M  END
$$$$

     RDKit          3D

  4  3  0  0  0  0  0  0  0  0999 V2000
    0.0563   -1.6635   -0.5252 F   0  0  0  0  0  0  0  0  0  0  0  0
   -0.4267   -0.5025   -0.0097 C   0  0  0  0  0  0  0  0  0  0  0  0
    0.4222    0.4925    0.3062 C   0  0  0  0  0  0  0  0  0  0  0  0
   -0.0664    1.7152    0.6429 F   0  0  0  0  0  0  0  0  0  0  0  0
  1  2  1  0
  2  3  2  0
  3  4  1  0
M  END
$$$$

     RDKit          3D

  6  6  0  0  0  0  0  0  0  0999 V2000
   -0.6834    0.6846    0.9303 N   0  0  0  0  0  0  0  0  0  0  0  0
    0.6476    0.7349    0.9214 N   0  0  0  0  0  0  0  0  0  0  0  0
    1.3648    0.0510   -0.0077 C   0  0  0  0  0  0  0  0  0  0  0  0
    0.6898   -0.6858   -0.9281 N   0  0  0  0  0  0  0  0  0  0  0  0
   -0.6412   -0.7367   -0.9200 N   0  0  0  0  0  0  0  0  0  0  0  0
   -1.3571   -0.0524    0.0096 C   0  0  0  0  0  0  0  0  0  0  0  0
  1  2  4  0
  2  3  4  0
  3  4  4  0
  4  5  4  0
  5  6  4  0
  6  1  4  0
M  END
$$$$

     RDKit          3D

  6  6  0  0  0  0  0  0  0  0999 V2000
    1.3015    0.5347    0.7507 N   0  0  0  0  0  0  0  0  0  0  0  0
    2.5384    0.2595    0.3408 N   0  0  0  0  0  0  0  0  0  0  0  0
    2.7518   -0.5532   -0.7260 C   0  0  0  0  0  0  0  0  0  0  0  0
    1.6743   -1.0801   -1.3632 N   0  0  0  0  0  0  0  0  0  0  0  0
    0.4377   -0.8039   -0.9527 N   0  0  0  0  0  0  0  0  0  0  0  0
    0.2222    0.0130    0.1119 C   0  0  0  0  0  0  0  0  0  0  0  0
  1  2  4  0
  2  3  4  0
  3  4  4  0
  4  5  4  0
  5  6  4  0
  6  1  4  0
M  END
$$$$

     RDKit          3D

  6  6  0  0  0  0  0  0  0  0999 V2000
    1.1924   -0.0792    1.5110 N   0  0  0  0  0  0  0  0  0  0  0  0
   -0.1358   -0.1449    1.4321 N   0  0  0  0  0  0  0  0  0  0  0  0
   -0.7673    0.0108    0.2399 C   0  0  0  0  0  0  0  0  0  0  0  0
   -0.0159    0.2002   -0.8736 N   0  0  0  0  0  0  0  0  0  0  0  0
    1.3118    0.2661   -0.7948 N   0  0  0  0  0  0  0  0  0  0  0  0
    1.9422    0.1447    0.4009 C   0  0  0  0  0  0  0  0  0  0  0  0
  1  2  4  0
  2  3  4  0
  3  4  4  0
  4  5  4  0
  5  6  4  0
  6  1  4  0
M  END
$$$$

     RDKit          3D

  6  6  0  0  0  0  0  0  0  0999 V2000
   -1.3887    1.6395    1.1879 N   0  0  0  0  0  0  0  0  0  0  0  0
   -0.0573    1.6542    1.1460 N   0  0  0  0  0  0  0  0  0  0  0  0
    0.6140    0.9448    0.2023 C   0  0  0  0  0  0  0  0  0  0  0  0
   -0.1004    0.2498   -0.7179 N   0  0  0  0  0  0  0  0  0  0  0  0
   -1.4314    0.2349   -0.6761 N   0  0  0  0  0  0  0  0  0  0  0  0
   -2.1025    0.9152    0.2875 C   0  0  0  0  0  0  0  0  0  0  0  0
  1  2  4  0
  2  3  4  0
  3  4  4  0
  4  5  4  0
  5  6  4  0
  6  1  4  0
M  END
$$$$

     RDKit          3D

  3  2  0  0  0  0  0  0  0  0999 V2000
   -0.0395    1.8577    0.0001 F   0  0  0  0  0  0  0  0  0  0  0  0
   -0.4621    0.5675    0.0487 C   0  0  0  0  0  0  0  0  0  0  0  0
    0.4348   -0.4323    0.0052 C   0  0  0  0  0  0  0  0  0  0  0  0
  1  2  1  0
  2  3  2  0
M  END
$$$$

     RDKit          3D

  6  6  0  0  0  0  0  0  0  0999 V2000
    0.4969   -0.0289   -1.1050 N   0  0  0  0  0  0  0  0  0  0  0  0
   -0.8118   -0.2234   -1.2596 N   0  0  0  0  0  0  0  0  0  0  0  0
   -1.6308   -0.2816   -0.1798 C   0  0  0  0  0  0  0  0  0  0  0  0
   -1.0969   -0.1393    1.0588 N   0  0  0  0  0  0  0  0  0  0  0  0
    0.2114    0.0579    1.2117 N   0  0  0  0  0  0  0  0  0  0  0  0
    1.0369    0.1035    0.1348 C   0  0  0  0  0  0  0  0  0  0  0  0
  1  2  4  0
  2  3  4  0
  3  4  4  0
  4  5  4  0
  5  6  4  0
  6  1  4  0
M  END
$$$$

     RDKit          3D

  6  6  0  0  0  0  0  0  0  0999 V2000
    0.7289   -0.8872    0.5513 N   0  0  0  0  0  0  0  0  0  0  0  0
   -0.5913   -1.0346    0.4554 N   0  0  0  0  0  0  0  0  0  0  0  0
   -1.3442   -0.1240   -0.2126 C   0  0  0  0  0  0  0  0  0  0  0  0
   -0.7248    0.9507   -0.7655 N   0  0  0  0  0  0  0  0  0  0  0  0
    0.5955    1.0982   -0.6696 N   0  0  0  0  0  0  0  0  0  0  0  0
    1.3483    0.1875   -0.0015 C   0  0  0  0  0  0  0  0  0  0  0  0
  1  2  4  0
  2  3  4  0
  3  4  4  0
  4  5  4  0
  5  6  4  0
  6  1  4  0
M  END
$$$$

     RDKit          3D

  6  6  0  0  0  0  0  0  0  0999 V2000
    1.3980    0.0860    0.1195 C   0  0  0  0  0  0  0  0  0  0  0  0
    0.7201   -0.7817    0.9947 C   0  0  0  0  0  0  0  0  0  0  0  0
   -0.6733   -0.8833    0.9554 C   0  0  0  0  0  0  0  0  0  0  0  0
   -1.4143   -0.1261    0.0360 C   0  0  0  0  0  0  0  0  0  0  0  0
   -0.7432    0.7508   -0.8296 C   0  0  0  0  0  0  0  0  0  0  0  0
    0.6500    0.8527   -0.7920 C   0  0  0  0  0  0  0  0  0  0  0  0
  1  2  4  0
  2  3  4  0
  3  4  4  0
  4  5  4  0
  5  6  4  0
  6  1  4  0
M  END
$$$$

     RDKit          3D

  5  4  0  0  0  0  0  0  0  0999 V2000
   -3.8398    0.1926   -0.8083 C   0  0  0  0  0  0  0  0  0  0  0  0
   -2.3185    0.2415   -0.9153 C   0  0  0  0  0  0  0  0  0  0  0  0
   -1.6565   -0.4707    0.2709 C   0  0  0  0  0  0  0  0  0  0  0  0
   -0.1542   -0.3950    0.1792 C   0  0  0  0  0  0  0  0  0  0  0  0
    0.5056   -1.1326   -0.7285 C   0  0  0  0  0  0  0  0  0  0  0  0
  1  2  1  0
  2  3  1  0
  3  4  1  0
  4  5  2  0
M  END
$$$$

     RDKit          3D

  3  2  0  0  0  0  0  0  0  0999 V2000
   -0.0150    1.7361    0.6756 F   0  0  0  0  0  0  0  0  0  0  0  0
   -0.4484    0.5384    0.2026 C   0  0  0  0  0  0  0  0  0  0  0  0
    0.4400   -0.4301   -0.0773 C   0  0  0  0  0  0  0  0  0  0  0  0
  1  2  1  0
  2  3  2  0
M  END
$$$$

     RDKit          3D

  6  6  0  0  0  0  0  0  0  0999 V2000
   -0.7792    0.6199   -0.6650 N   0  0  0  0  0  0  0  0  0  0  0  0
    0.1930    1.1512    0.0745 N   0  0  0  0  0  0  0  0  0  0  0  0
    1.0546    0.3586    0.7637 C   0  0  0  0  0  0  0  0  0  0  0  0
    0.9012   -0.9887    0.6808 N   0  0  0  0  0  0  0  0  0  0  0  0
   -0.0710   -1.5199   -0.0587 N   0  0  0  0  0  0  0  0  0  0  0  0
   -0.9326   -0.7273   -0.7478 C   0  0  0  0  0  0  0  0  0  0  0  0
  1  2  4  0
  2  3  4  0
  3  4  4  0
  4  5  4  0
  5  6  4  0
  6  1  4  0
M  END
$$$$

     RDKit          3D

  6  6  0  0  0  0  0  0  0  0999 V2000
   -0.9671   -1.3676    0.3511 N   0  0  0  0  0  0  0  0  0  0  0  0
    0.3285   -1.5107    0.6258 N   0  0  0  0  0  0  0  0  0  0  0  0
    1.1513   -0.4311    0.6664 C   0  0  0  0  0  0  0  0  0  0  0  0
    0.6196    0.7992    0.4564 N   0  0  0  0  0  0  0  0  0  0  0  0
   -0.6755    0.9425    0.1816 N   0  0  0  0  0  0  0  0  0  0  0  0
   -1.4920   -0.1390    0.1065 C   0  0  0  0  0  0  0  0  0  0  0  0
  1  2  4  0
  2  3  4  0
  3  4  4  0
  4  5  4  0
  5  6  4  0
  6  1  4  0
M  END
$$$$

     RDKit          3D

  4  3  0  0  0  0  0  0  0  0999 V2000
    1.2493   -4.0205   -1.0008 N   0  0  0  0  0  0  0  0  0  0  0  0
    0.8521   -2.9571   -0.7754 C   0  0  0  0  0  0  0  0  0  0  0  0
    0.3585   -1.6349   -0.4949 C   0  0  0  0  0  0  0  0  0  0  0  0
   -0.6083   -1.1103   -1.2594 C   0  0  0  0  0  0  0  0  0  0  0  0
  1  2  3  0
  2  3  1  0
  3  4  2  0
M  END
$$$$

     RDKit          3D

  6  6  0  0  0  0  0  0  0  0999 V2000
   -0.2737   -0.8874    0.9091 N   0  0  0  0  0  0  0  0  0  0  0  0
    0.9785   -0.5859    0.5702 N   0  0  0  0  0  0  0  0  0  0  0  0
    1.2373    0.3900   -0.3378 C   0  0  0  0  0  0  0  0  0  0  0  0
    0.1892    1.0660   -0.8762 N   0  0  0  0  0  0  0  0  0  0  0  0
   -1.0630    0.7643   -0.5371 N   0  0  0  0  0  0  0  0  0  0  0  0
   -1.3227   -0.2259    0.3560 C   0  0  0  0  0  0  0  0  0  0  0  0
  1  2  4  0
  2  3  4  0
  3  4  4  0
  4  5  4  0
  5  6  4  0
  6  1  4  0
M  END
$$$$

     RDKit          3D

  4  3  0  0  0  0  0  0  0  0999 V2000
    0.2297   -1.4970   -1.1890 C   0  0  0  0  0  0  0  0  0  0  0  0
    0.4929   -0.4088   -0.1811 C   0  0  0  0  0  0  0  0  0  0  0  0
   -0.4926    0.4097    0.2537 C   0  0  0  0  0  0  0  0  0  0  0  0
   -0.2293    1.4978    1.2616 C   0  0  0  0  0  0  0  0  0  0  0  0
  1  2  1  0
  2  3  2  0
  3  4  1  0
M  END
$$$$

     RDKit          3D

  8  8  0  0  0  0  0  0  0  0999 V2000
    1.8409    2.0359   -1.2653 C   0  0  0  0  0  0  0  0  0  0  0  0
    1.0761    0.9459   -0.5619 C   0  0  0  0  0  0  0  0  0  0  0  0
   -0.3249    0.9310   -0.6308 C   0  0  0  0  0  0  0  0  0  0  0  0
   -1.0670   -0.0728    0.0073 C   0  0  0  0  0  0  0  0  0  0  0  0
   -0.3999   -1.0846    0.7313 C   0  0  0  0  0  0  0  0  0  0  0  0
   -1.1638   -2.1805    1.4267 C   0  0  0  0  0  0  0  0  0  0  0  0
    0.9995   -1.0534    0.8239 C   0  0  0  0  0  0  0  0  0  0  0  0
    1.7416   -0.0501    0.1851 C   0  0  0  0  0  0  0  0  0  0  0  0
  1  2  1  0
  2  3  4  0
  3  4  4  0
  4  5  4  0
  5  6  1  0
  5  7  4  0
  7  8  4  0
  8  2  4  0
M  END
$$$$

     RDKit          3D

  8  8  0  0  0  0  0  0  0  0999 V2000
   -1.7938   -0.7596   -2.5057 Cl  0  0  0  0  0  0  0  0  0  0  0  0
   -0.8098   -0.3792   -1.0961 C   0  0  0  0  0  0  0  0  0  0  0  0
    0.5816   -0.3647   -1.2364 C   0  0  0  0  0  0  0  0  0  0  0  0
    1.4076   -0.0401   -0.1499 C   0  0  0  0  0  0  0  0  0  0  0  0
    0.8247    0.2715    1.0937 C   0  0  0  0  0  0  0  0  0  0  0  0
    1.8060    0.7195    2.4852 Cl  0  0  0  0  0  0  0  0  0  0  0  0
   -0.5667    0.2564    1.2343 C   0  0  0  0  0  0  0  0  0  0  0  0
   -1.3928   -0.0661    0.1472 C   0  0  0  0  0  0  0  0  0  0  0  0
  1  2  1  0
  2  3  4  0
  3  4  4  0
  4  5  4  0
  5  6  1  0
  5  7  4  0
  7  8  4  0
  8  2  4  0
M  END
$$$$

     RDKit          3D

  6  6  0  0  0  0  0  0  0  0999 V2000
   -1.0039   -0.7580    1.2398 N   0  0  0  0  0  0  0  0  0  0  0  0
    0.3251   -0.7415    1.1517 N   0  0  0  0  0  0  0  0  0  0  0  0
    0.9430   -0.1281    0.1096 C   0  0  0  0  0  0  0  0  0  0  0  0
    0.1782    0.4888   -0.8276 N   0  0  0  0  0  0  0  0  0  0  0  0
   -1.1507    0.4719   -0.7393 N   0  0  0  0  0  0  0  0  0  0  0  0
   -1.7711   -0.1543    0.2947 C   0  0  0  0  0  0  0  0  0  0  0  0
  1  2  4  0
  2  3  4  0
  3  4  4  0
  4  5  4  0
  5  6  4  0
  6  1  4  0
M  END
$$$$

     RDKit          3D

  5  4  0  0  0  0  0  0  0  0999 V2000
   -3.8398    0.1926   -0.8083 C   0  0  0  0  0  0  0  0  0  0  0  0
   -2.3185    0.2415   -0.9153 C   0  0  0  0  0  0  0  0  0  0  0  0
   -1.6565   -0.4707    0.2709 C   0  0  0  0  0  0  0  0  0  0  0  0
   -0.1542   -0.3950    0.1792 C   0  0  0  0  0  0  0  0  0  0  0  0
    0.5056   -1.1326   -0.7285 C   0  0  0  0  0  0  0  0  0  0  0  0
  1  2  1  0
  2  3  1  0
  3  4  1  0
  4  5  2  0
M  END
$$$$

     RDKit          3D

  3  2  0  0  0  0  0  0  0  0999 V2000
    0.4945   -1.1290    1.7999 Cl  0  0  0  0  0  0  0  0  0  0  0  0
   -0.3420   -0.3265    0.4751 C   0  0  0  0  0  0  0  0  0  0  0  0
    0.3016    0.4443   -0.4070 C   0  0  0  0  0  0  0  0  0  0  0  0
  1  2  1  0
  2  3  2  0
M  END
$$$$

     RDKit          3D

  4  3  0  0  0  0  0  0  0  0999 V2000
   -1.0316   -1.2201   -1.6494 Cl  0  0  0  0  0  0  0  0  0  0  0  0
    0.1487   -0.5269   -0.5410 C   0  0  0  0  0  0  0  0  0  0  0  0
   -0.1487    0.5269    0.2366 C   0  0  0  0  0  0  0  0  0  0  0  0
    1.0316    1.2201    1.3449 Cl  0  0  0  0  0  0  0  0  0  0  0  0
  1  2  1  0
  2  3  2  0
  3  4  1  0
M  END
$$$$

     RDKit          3D

  6  6  0  0  0  0  0  0  0  0999 V2000
    0.5740   -0.5232   -0.9397 N   0  0  0  0  0  0  0  0  0  0  0  0
    1.8794   -0.6866   -0.7314 N   0  0  0  0  0  0  0  0  0  0  0  0
    2.5085   -0.0348    0.2811 C   0  0  0  0  0  0  0  0  0  0  0  0
    1.7738    0.7825    1.0799 N   0  0  0  0  0  0  0  0  0  0  0  0
    0.4684    0.9460    0.8710 N   0  0  0  0  0  0  0  0  0  0  0  0
   -0.1558    0.3058   -0.1511 C   0  0  0  0  0  0  0  0  0  0  0  0
  1  2  4  0
  2  3  4  0
  3  4  4  0
  4  5  4  0
  5  6  4  0
  6  1  4  0
M  END
$$$$

     RDKit          3D

  6  6  0  0  0  0  0  0  0  0999 V2000
   -0.7231    0.6325   -1.4527 N   0  0  0  0  0  0  0  0  0  0  0  0
    0.6056    0.7136   -1.4736 N   0  0  0  0  0  0  0  0  0  0  0  0
    1.3575   -0.3661   -1.8042 C   0  0  0  0  0  0  0  0  0  0  0  0
    0.7299   -1.5145   -2.1661 N   0  0  0  0  0  0  0  0  0  0  0  0
   -0.6000   -1.5941   -2.1493 N   0  0  0  0  0  0  0  0  0  0  0  0
   -1.3498   -0.5277   -1.7704 C   0  0  0  0  0  0  0  0  0  0  0  0
  1  2  4  0
  2  3  4  0
  3  4  4  0
  4  5  4  0
  5  6  4  0
  6  1  4  0
M  END
$$$$
