
     RDKit          3D

  6  6  0  0  0  0  0  0  0  0999 V2000
    0.5740   -0.5232   -0.9397 N   0  0  0  0  0  0  0  0  0  0  0  0
    1.8794   -0.6866   -0.7314 N   0  0  0  0  0  0  0  0  0  0  0  0
    2.5085   -0.0348    0.2811 C   0  0  0  0  0  0  0  0  0  0  0  0
    1.7738    0.7825    1.0799 N   0  0  0  0  0  0  0  0  0  0  0  0
    0.4684    0.9460    0.8710 N   0  0  0  0  0  0  0  0  0  0  0  0
   -0.1558    0.3058   -0.1511 C   0  0  0  0  0  0  0  0  0  0  0  0
  1  2  4  0
  2  3  4  0
  3  4  4  0
  4  5  4  0
  5  6  4  0
  6  1  4  0
M  END
$$$$

     RDKit          3D

  6  6  0  0  0  0  0  0  0  0999 V2000
    0.5740   -0.5232   -0.9397 N   0  0  0  0  0  0  0  0  0  0  0  0
    1.8794   -0.6866   -0.7314 N   0  0  0  0  0  0  0  0  0  0  0  0
    2.5085   -0.0348    0.2811 C   0  0  0  0  0  0  0  0  0  0  0  0
    1.7738    0.7825    1.0799 N   0  0  0  0  0  0  0  0  0  0  0  0
    0.4684    0.9460    0.8710 N   0  0  0  0  0  0  0  0  0  0  0  0
   -0.1558    0.3058   -0.1511 C   0  0  0  0  0  0  0  0  0  0  0  0
  1  2  4  0
  2  3  4  0
  3  4  4  0
  4  5  4  0
  5  6  4  0
  6  1  4  0
M  END
$$$$

     RDKit          3D

  6  6  0  0  0  0  0  0  0  0999 V2000
    0.5967   -0.8016    0.6341 N   0  0  0  0  0  0  0  0  0  0  0  0
    1.9139   -0.6068    0.6664 N   0  0  0  0  0  0  0  0  0  0  0  0
    2.5100    0.2573   -0.1960 C   0  0  0  0  0  0  0  0  0  0  0  0
    1.7303    0.9227   -1.0877 N   0  0  0  0  0  0  0  0  0  0  0  0
    0.4130    0.7274   -1.1199 N   0  0  0  0  0  0  0  0  0  0  0  0
   -0.1792   -0.1484   -0.2676 C   0  0  0  0  0  0  0  0  0  0  0  0
  1  2  4  0
  2  3  4  0
  3  4  4  0
  4  5  4  0
  5  6  4  0
  6  1  4  0
M  END
$$$$

     RDKit          3D

  6  6  0  0  0  0  0  0  0  0999 V2000
    0.5967   -0.8016    0.6341 N   0  0  0  0  0  0  0  0  0  0  0  0
    1.9139   -0.6068    0.6664 N   0  0  0  0  0  0  0  0  0  0  0  0
    2.5100    0.2573   -0.1960 C   0  0  0  0  0  0  0  0  0  0  0  0
    1.7303    0.9227   -1.0877 N   0  0  0  0  0  0  0  0  0  0  0  0
    0.4130    0.7274   -1.1199 N   0  0  0  0  0  0  0  0  0  0  0  0
   -0.1792   -0.1484   -0.2676 C   0  0  0  0  0  0  0  0  0  0  0  0
  1  2  4  0
  2  3  4  0
  3  4  4  0
  4  5  4  0
  5  6  4  0
  6  1  4  0
M  END
$$$$

     RDKit          3D

  6  6  0  0  0  0  0  0  0  0999 V2000
    0.5482   -1.0470   -0.0026 N   0  0  0  0  0  0  0  0  0  0  0  0
    1.8657   -0.9894   -0.1894 N   0  0  0  0  0  0  0  0  0  0  0  0
    2.5212    0.2000   -0.1545 C   0  0  0  0  0  0  0  0  0  0  0  0
    1.8005    1.3298    0.0691 N   0  0  0  0  0  0  0  0  0  0  0  0
    0.4829    1.2718    0.2562 N   0  0  0  0  0  0  0  0  0  0  0  0
   -0.1684    0.0804    0.2366 C   0  0  0  0  0  0  0  0  0  0  0  0
  1  2  4  0
  2  3  4  0
  3  4  4  0
  4  5  4  0
  5  6  4  0
  6  1  4  0
M  END
$$$$

     RDKit          3D

  6  6  0  0  0  0  0  0  0  0999 V2000
    0.5482   -1.0470   -0.0026 N   0  0  0  0  0  0  0  0  0  0  0  0
    1.8657   -0.9894   -0.1894 N   0  0  0  0  0  0  0  0  0  0  0  0
    2.5212    0.2000   -0.1545 C   0  0  0  0  0  0  0  0  0  0  0  0
    1.8005    1.3298    0.0691 N   0  0  0  0  0  0  0  0  0  0  0  0
    0.4829    1.2718    0.2562 N   0  0  0  0  0  0  0  0  0  0  0  0
   -0.1684    0.0804    0.2366 C   0  0  0  0  0  0  0  0  0  0  0  0
  1  2  4  0
  2  3  4  0
  3  4  4  0
  4  5  4  0
  5  6  4  0
  6  1  4  0
M  END
$$$$

     RDKit          3D

  6  6  0  0  0  0  0  0  0  0999 V2000
    0.6448    1.0610   -0.2810 N   0  0  0  0  0  0  0  0  0  0  0  0
    1.9624    0.8706   -0.3215 N   0  0  0  0  0  0  0  0  0  0  0  0
    2.5078   -0.3041    0.0888 C   0  0  0  0  0  0  0  0  0  0  0  0
    1.6772   -1.2823    0.5351 N   0  0  0  0  0  0  0  0  0  0  0  0
    0.3595   -1.0915    0.5758 N   0  0  0  0  0  0  0  0  0  0  0  0
   -0.1826    0.0891    0.1802 C   0  0  0  0  0  0  0  0  0  0  0  0
  1  2  4  0
  2  3  4  0
  3  4  4  0
  4  5  4  0
  5  6  4  0
  6  1  4  0
M  END
$$$$

     RDKit          3D

  6  6  0  0  0  0  0  0  0  0999 V2000
    0.6448    1.0610   -0.2810 N   0  0  0  0  0  0  0  0  0  0  0  0
    1.9624    0.8706   -0.3215 N   0  0  0  0  0  0  0  0  0  0  0  0
    2.5078   -0.3041    0.0888 C   0  0  0  0  0  0  0  0  0  0  0  0
    1.6772   -1.2823    0.5351 N   0  0  0  0  0  0  0  0  0  0  0  0
    0.3595   -1.0915    0.5758 N   0  0  0  0  0  0  0  0  0  0  0  0
   -0.1826    0.0891    0.1802 C   0  0  0  0  0  0  0  0  0  0  0  0
  1  2  4  0
  2  3  4  0
  3  4  4  0
  4  5  4  0
  5  6  4  0
  6  1  4  0
M  END
$$$$

     RDKit          3D

  6  6  0  0  0  0  0  0  0  0999 V2000
    0.6783    0.2028    1.2083 N   0  0  0  0  0  0  0  0  0  0  0  0
    1.9936    0.1199    1.0154 N   0  0  0  0  0  0  0  0  0  0  0  0
    2.4979   -0.2174   -0.2002 C   0  0  0  0  0  0  0  0  0  0  0  0
    1.6293   -0.4618   -1.2160 N   0  0  0  0  0  0  0  0  0  0  0  0
    0.3140   -0.3792   -1.0226 N   0  0  0  0  0  0  0  0  0  0  0  0
   -0.1887   -0.0574    0.1971 C   0  0  0  0  0  0  0  0  0  0  0  0
  1  2  4  0
  2  3  4  0
  3  4  4  0
  4  5  4  0
  5  6  4  0
  6  1  4  0
M  END
$$$$

     RDKit          3D

  6  6  0  0  0  0  0  0  0  0999 V2000
    0.6783    0.2028    1.2083 N   0  0  0  0  0  0  0  0  0  0  0  0
    1.9936    0.1199    1.0154 N   0  0  0  0  0  0  0  0  0  0  0  0
    2.4979   -0.2174   -0.2002 C   0  0  0  0  0  0  0  0  0  0  0  0
    1.6293   -0.4618   -1.2160 N   0  0  0  0  0  0  0  0  0  0  0  0
    0.3140   -0.3792   -1.0226 N   0  0  0  0  0  0  0  0  0  0  0  0
   -0.1887   -0.0574    0.1971 C   0  0  0  0  0  0  0  0  0  0  0  0
  1  2  4  0
  2  3  4  0
  3  4  4  0
  4  5  4  0
  5  6  4  0
  6  1  4  0
M  END
$$$$

     RDKit          3D

  6  6  0  0  0  0  0  0  0  0999 V2000
    0.6059   -0.5983   -0.9882 N   0  0  0  0  0  0  0  0  0  0  0  0
    1.9117   -0.3359   -1.0026 N   0  0  0  0  0  0  0  0  0  0  0  0
    2.4995    0.3228    0.0300 C   0  0  0  0  0  0  0  0  0  0  0  0
    1.7232    0.7133    1.0743 N   0  0  0  0  0  0  0  0  0  0  0  0
    0.4174    0.4504    1.0885 N   0  0  0  0  0  0  0  0  0  0  0  0
   -0.1657   -0.2219    0.0628 C   0  0  0  0  0  0  0  0  0  0  0  0
  1  2  4  0
  2  3  4  0
  3  4  4  0
  4  5  4  0
  5  6  4  0
  6  1  4  0
M  END
$$$$

     RDKit          3D

  6  6  0  0  0  0  0  0  0  0999 V2000
    0.6059   -0.5983   -0.9882 N   0  0  0  0  0  0  0  0  0  0  0  0
    1.9117   -0.3359   -1.0026 N   0  0  0  0  0  0  0  0  0  0  0  0
    2.4995    0.3228    0.0300 C   0  0  0  0  0  0  0  0  0  0  0  0
    1.7232    0.7133    1.0743 N   0  0  0  0  0  0  0  0  0  0  0  0
    0.4174    0.4504    1.0885 N   0  0  0  0  0  0  0  0  0  0  0  0
   -0.1657   -0.2219    0.0628 C   0  0  0  0  0  0  0  0  0  0  0  0
  1  2  4  0
  2  3  4  0
  3  4  4  0
  4  5  4  0
  5  6  4  0
  6  1  4  0
M  END
$$$$

     RDKit          3D

  6  6  0  0  0  0  0  0  0  0999 V2000
    0.5418    0.6190   -1.1995 N   0  0  0  0  0  0  0  0  0  0  0  0
    1.8678    0.6916   -1.0955 N   0  0  0  0  0  0  0  0  0  0  0  0
    2.5274    0.0065   -0.1253 C   0  0  0  0  0  0  0  0  0  0  0  0
    1.8024   -0.7488    0.7405 N   0  0  0  0  0  0  0  0  0  0  0  0
    0.4765   -0.8208    0.6364 N   0  0  0  0  0  0  0  0  0  0  0  0
   -0.1799   -0.1489   -0.3430 C   0  0  0  0  0  0  0  0  0  0  0  0
  1  2  4  0
  2  3  4  0
  3  4  4  0
  4  5  4  0
  5  6  4  0
  6  1  4  0
M  END
$$$$

     RDKit          3D

  6  6  0  0  0  0  0  0  0  0999 V2000
    0.5418    0.6190   -1.1995 N   0  0  0  0  0  0  0  0  0  0  0  0
    1.8678    0.6916   -1.0955 N   0  0  0  0  0  0  0  0  0  0  0  0
    2.5274    0.0065   -0.1253 C   0  0  0  0  0  0  0  0  0  0  0  0
    1.8024   -0.7488    0.7405 N   0  0  0  0  0  0  0  0  0  0  0  0
    0.4765   -0.8208    0.6364 N   0  0  0  0  0  0  0  0  0  0  0  0
   -0.1799   -0.1489   -0.3430 C   0  0  0  0  0  0  0  0  0  0  0  0
  1  2  4  0
  2  3  4  0
  3  4  4  0
  4  5  4  0
  5  6  4  0
  6  1  4  0
M  END
$$$$

     RDKit          3D

  6  6  0  0  0  0  0  0  0  0999 V2000
    0.6678    1.0984   -0.5845 N   0  0  0  0  0  0  0  0  0  0  0  0
    1.9408    0.7921   -0.8297 N   0  0  0  0  0  0  0  0  0  0  0  0
    2.4840   -0.3571   -0.3500 C   0  0  0  0  0  0  0  0  0  0  0  0
    1.6966   -1.1898    0.3797 N   0  0  0  0  0  0  0  0  0  0  0  0
    0.4237   -0.8834    0.6243 N   0  0  0  0  0  0  0  0  0  0  0  0
   -0.1134    0.2725    0.1583 C   0  0  0  0  0  0  0  0  0  0  0  0
  1  2  4  0
  2  3  4  0
  3  4  4  0
  4  5  4  0
  5  6  4  0
  6  1  4  0
M  END
$$$$

     RDKit          3D

  6  6  0  0  0  0  0  0  0  0999 V2000
    0.6678    1.0984   -0.5845 N   0  0  0  0  0  0  0  0  0  0  0  0
    1.9408    0.7921   -0.8297 N   0  0  0  0  0  0  0  0  0  0  0  0
    2.4840   -0.3571   -0.3500 C   0  0  0  0  0  0  0  0  0  0  0  0
    1.6966   -1.1898    0.3797 N   0  0  0  0  0  0  0  0  0  0  0  0
    0.4237   -0.8834    0.6243 N   0  0  0  0  0  0  0  0  0  0  0  0
   -0.1134    0.2725    0.1583 C   0  0  0  0  0  0  0  0  0  0  0  0
  1  2  4  0
  2  3  4  0
  3  4  4  0
  4  5  4  0
  5  6  4  0
  6  1  4  0
M  END
$$$$

     RDKit          3D

  6  6  0  0  0  0  0  0  0  0999 V2000
    0.4844   -0.1119   -1.1288 N   0  0  0  0  0  0  0  0  0  0  0  0
    1.7910    0.1429   -1.1762 N   0  0  0  0  0  0  0  0  0  0  0  0
    2.4889    0.4087   -0.0413 C   0  0  0  0  0  0  0  0  0  0  0  0
    1.8217    0.4154    1.1422 N   0  0  0  0  0  0  0  0  0  0  0  0
    0.5152    0.1610    1.1891 N   0  0  0  0  0  0  0  0  0  0  0  0
   -0.1778   -0.1204    0.0567 C   0  0  0  0  0  0  0  0  0  0  0  0
  1  2  4  0
  2  3  4  0
  3  4  4  0
  4  5  4  0
  5  6  4  0
  6  1  4  0
M  END
$$$$

     RDKit          3D

  6  6  0  0  0  0  0  0  0  0999 V2000
    0.4844   -0.1119   -1.1288 N   0  0  0  0  0  0  0  0  0  0  0  0
    1.7910    0.1429   -1.1762 N   0  0  0  0  0  0  0  0  0  0  0  0
    2.4889    0.4087   -0.0413 C   0  0  0  0  0  0  0  0  0  0  0  0
    1.8217    0.4154    1.1422 N   0  0  0  0  0  0  0  0  0  0  0  0
    0.5152    0.1610    1.1891 N   0  0  0  0  0  0  0  0  0  0  0  0
   -0.1778   -0.1204    0.0567 C   0  0  0  0  0  0  0  0  0  0  0  0
  1  2  4  0
  2  3  4  0
  3  4  4  0
  4  5  4  0
  5  6  4  0
  6  1  4  0
M  END
$$$$

     RDKit          3D

  6  6  0  0  0  0  0  0  0  0999 V2000
    0.3475    0.8435   -0.2686 N   0  0  0  0  0  0  0  0  0  0  0  0
    1.6663    0.9671   -0.4089 N   0  0  0  0  0  0  0  0  0  0  0  0
    2.5050   -0.0274   -0.0092 C   0  0  0  0  0  0  0  0  0  0  0  0
    1.9690   -1.1446    0.5480 N   0  0  0  0  0  0  0  0  0  0  0  0
    0.6501   -1.2690    0.6866 N   0  0  0  0  0  0  0  0  0  0  0  0
   -0.1869   -0.2842    0.2687 C   0  0  0  0  0  0  0  0  0  0  0  0
  1  2  4  0
  2  3  4  0
  3  4  4  0
  4  5  4  0
  5  6  4  0
  6  1  4  0
M  END
$$$$

     RDKit          3D

  6  6  0  0  0  0  0  0  0  0999 V2000
    0.3475    0.8435   -0.2686 N   0  0  0  0  0  0  0  0  0  0  0  0
    1.6663    0.9671   -0.4089 N   0  0  0  0  0  0  0  0  0  0  0  0
    2.5050   -0.0274   -0.0092 C   0  0  0  0  0  0  0  0  0  0  0  0
    1.9690   -1.1446    0.5480 N   0  0  0  0  0  0  0  0  0  0  0  0
    0.6501   -1.2690    0.6866 N   0  0  0  0  0  0  0  0  0  0  0  0
   -0.1869   -0.2842    0.2687 C   0  0  0  0  0  0  0  0  0  0  0  0
  1  2  4  0
  2  3  4  0
  3  4  4  0
  4  5  4  0
  5  6  4  0
  6  1  4  0
M  END
$$$$

     RDKit          3D

  6  6  0  0  0  0  0  0  0  0999 V2000
    0.4999    1.1428   -0.0331 N   0  0  0  0  0  0  0  0  0  0  0  0
    1.7928    1.1861   -0.3512 N   0  0  0  0  0  0  0  0  0  0  0  0
    2.4663    0.0521   -0.6762 C   0  0  0  0  0  0  0  0  0  0  0  0
    1.7884   -1.1254   -0.6785 N   0  0  0  0  0  0  0  0  0  0  0  0
    0.4966   -1.1696   -0.3570 N   0  0  0  0  0  0  0  0  0  0  0  0
   -0.1692   -0.0382   -0.0161 C   0  0  0  0  0  0  0  0  0  0  0  0
  1  2  4  0
  2  3  4  0
  3  4  4  0
  4  5  4  0
  5  6  4  0
  6  1  4  0
M  END
$$$$

     RDKit          3D

  6  6  0  0  0  0  0  0  0  0999 V2000
    0.4999    1.1428   -0.0331 N   0  0  0  0  0  0  0  0  0  0  0  0
    1.7928    1.1861   -0.3512 N   0  0  0  0  0  0  0  0  0  0  0  0
    2.4663    0.0521   -0.6762 C   0  0  0  0  0  0  0  0  0  0  0  0
    1.7884   -1.1254   -0.6785 N   0  0  0  0  0  0  0  0  0  0  0  0
    0.4966   -1.1696   -0.3570 N   0  0  0  0  0  0  0  0  0  0  0  0
   -0.1692   -0.0382   -0.0161 C   0  0  0  0  0  0  0  0  0  0  0  0
  1  2  4  0
  2  3  4  0
  3  4  4  0
  4  5  4  0
  5  6  4  0
  6  1  4  0
M  END
$$$$

     RDKit          3D

  6  6  0  0  0  0  0  0  0  0999 V2000
    0.3349   -0.9353   -0.9984 N   0  0  0  0  0  0  0  0  0  0  0  0
    1.6589   -1.0835   -0.9877 N   0  0  0  0  0  0  0  0  0  0  0  0
    2.4527   -0.1917   -0.3391 C   0  0  0  0  0  0  0  0  0  0  0  0
    1.8641    0.8507    0.3028 N   0  0  0  0  0  0  0  0  0  0  0  0
    0.5405    0.9974    0.2923 N   0  0  0  0  0  0  0  0  0  0  0  0
   -0.2510    0.1160   -0.3688 C   0  0  0  0  0  0  0  0  0  0  0  0
  1  2  4  0
  2  3  4  0
  3  4  4  0
  4  5  4  0
  5  6  4  0
  6  1  4  0
M  END
$$$$

     RDKit          3D

  6  6  0  0  0  0  0  0  0  0999 V2000
    0.3349   -0.9353   -0.9984 N   0  0  0  0  0  0  0  0  0  0  0  0
    1.6589   -1.0835   -0.9877 N   0  0  0  0  0  0  0  0  0  0  0  0
    2.4527   -0.1917   -0.3391 C   0  0  0  0  0  0  0  0  0  0  0  0
    1.8641    0.8507    0.3028 N   0  0  0  0  0  0  0  0  0  0  0  0
    0.5405    0.9974    0.2923 N   0  0  0  0  0  0  0  0  0  0  0  0
   -0.2510    0.1160   -0.3688 C   0  0  0  0  0  0  0  0  0  0  0  0
  1  2  4  0
  2  3  4  0
  3  4  4  0
  4  5  4  0
  5  6  4  0
  6  1  4  0
M  END
$$$$

     RDKit          3D

  6  6  0  0  0  0  0  0  0  0999 V2000
   -0.7231    0.6325   -1.4527 N   0  0  0  0  0  0  0  0  0  0  0  0
    0.6056    0.7136   -1.4736 N   0  0  0  0  0  0  0  0  0  0  0  0
    1.3575   -0.3661   -1.8042 C   0  0  0  0  0  0  0  0  0  0  0  0
    0.7299   -1.5145   -2.1661 N   0  0  0  0  0  0  0  0  0  0  0  0
   -0.6000   -1.5941   -2.1493 N   0  0  0  0  0  0  0  0  0  0  0  0
   -1.3498   -0.5277   -1.7704 C   0  0  0  0  0  0  0  0  0  0  0  0
  1  2  4  0
  2  3  4  0
  3  4  4  0
  4  5  4  0
  5  6  4  0
  6  1  4  0
M  END
$$$$

     RDKit          3D

  6  6  0  0  0  0  0  0  0  0999 V2000
    0.5432   -2.4232   -1.0895 N   0  0  0  0  0  0  0  0  0  0  0  0
   -0.7871   -2.3773   -1.0398 N   0  0  0  0  0  0  0  0  0  0  0  0
   -1.4200   -1.6623   -0.0742 C   0  0  0  0  0  0  0  0  0  0  0  0
   -0.6694   -1.0239    0.8583 N   0  0  0  0  0  0  0  0  0  0  0  0
    0.6607   -1.0702    0.8089 N   0  0  0  0  0  0  0  0  0  0  0  0
    1.2944   -1.7562   -0.1754 C   0  0  0  0  0  0  0  0  0  0  0  0
  1  2  4  0
  2  3  4  0
  3  4  4  0
  4  5  4  0
  5  6  4  0
  6  1  4  0
M  END
$$$$

     RDKit          3D

  6  6  0  0  0  0  0  0  0  0999 V2000
    0.8194    0.6164    0.7895 N   0  0  0  0  0  0  0  0  0  0  0  0
   -0.3797    1.1264    0.5140 N   0  0  0  0  0  0  0  0  0  0  0  0
   -1.2903    0.4109   -0.1951 C   0  0  0  0  0  0  0  0  0  0  0  0
   -0.9450   -0.8258   -0.6343 N   0  0  0  0  0  0  0  0  0  0  0  0
    0.2537   -1.3363   -0.3578 N   0  0  0  0  0  0  0  0  0  0  0  0
    1.1636   -0.6208    0.3517 C   0  0  0  0  0  0  0  0  0  0  0  0
  1  2  4  0
  2  3  4  0
  3  4  4  0
  4  5  4  0
  5  6  4  0
  6  1  4  0
M  END
$$$$

     RDKit          3D

  6  6  0  0  0  0  0  0  0  0999 V2000
   -0.8652   -2.5771   -0.0071 N   0  0  0  0  0  0  0  0  0  0  0  0
    0.4544   -2.6763   -0.1599 N   0  0  0  0  0  0  0  0  0  0  0  0
    1.2764   -1.6910    0.2834 C   0  0  0  0  0  0  0  0  0  0  0  0
    0.7323   -0.6248    0.9228 N   0  0  0  0  0  0  0  0  0  0  0  0
   -0.5865   -0.5269    1.0783 N   0  0  0  0  0  0  0  0  0  0  0  0
   -1.4119   -1.4875    0.5911 C   0  0  0  0  0  0  0  0  0  0  0  0
  1  2  4  0
  2  3  4  0
  3  4  4  0
  4  5  4  0
  5  6  4  0
  6  1  4  0
M  END
$$$$

     RDKit          3D

  6  6  0  0  0  0  0  0  0  0999 V2000
   -0.4509   -1.3690    0.3856 N   0  0  0  0  0  0  0  0  0  0  0  0
    0.7925   -1.1956   -0.0589 N   0  0  0  0  0  0  0  0  0  0  0  0
    1.2844    0.0496   -0.2798 C   0  0  0  0  0  0  0  0  0  0  0  0
    0.4738    1.1158   -0.0528 N   0  0  0  0  0  0  0  0  0  0  0  0
   -0.7702    0.9430    0.3904 N   0  0  0  0  0  0  0  0  0  0  0  0
   -1.2605   -0.3027    0.6085 C   0  0  0  0  0  0  0  0  0  0  0  0
  1  2  4  0
  2  3  4  0
  3  4  4  0
  4  5  4  0
  5  6  4  0
  6  1  4  0
M  END
$$$$

     RDKit          3D

  6  6  0  0  0  0  0  0  0  0999 V2000
   -0.4881    0.9950    0.5174 N   0  0  0  0  0  0  0  0  0  0  0  0
    0.7674    0.8848    0.0867 N   0  0  0  0  0  0  0  0  0  0  0  0
    1.2561   -0.3119   -0.3273 C   0  0  0  0  0  0  0  0  0  0  0  0
    0.4327   -1.3911   -0.3112 N   0  0  0  0  0  0  0  0  0  0  0  0
   -0.8232   -1.2808    0.1185 N   0  0  0  0  0  0  0  0  0  0  0  0
   -1.3098   -0.0848    0.5342 C   0  0  0  0  0  0  0  0  0  0  0  0
  1  2  4  0
  2  3  4  0
  3  4  4  0
  4  5  4  0
  5  6  4  0
  6  1  4  0
M  END
$$$$

     RDKit          3D

  6  6  0  0  0  0  0  0  0  0999 V2000
   -0.7209    1.5077   -0.6603 N   0  0  0  0  0  0  0  0  0  0  0  0
    0.5980    1.5697   -0.8310 N   0  0  0  0  0  0  0  0  0  0  0  0
    1.4135    1.9164    0.1976 C   0  0  0  0  0  0  0  0  0  0  0  0
    0.8553    2.2474    1.3911 N   0  0  0  0  0  0  0  0  0  0  0  0
   -0.4644    2.1858    1.5617 N   0  0  0  0  0  0  0  0  0  0  0  0
   -1.2721    1.7930    0.5446 C   0  0  0  0  0  0  0  0  0  0  0  0
  1  2  4  0
  2  3  4  0
  3  4  4  0
  4  5  4  0
  5  6  4  0
  6  1  4  0
M  END
$$$$

     RDKit          3D

  6  6  0  0  0  0  0  0  0  0999 V2000
    0.7938    0.7021   -0.0481 N   0  0  0  0  0  0  0  0  0  0  0  0
   -0.5097    0.8547   -0.2745 N   0  0  0  0  0  0  0  0  0  0  0  0
   -1.3292   -0.2249   -0.3686 C   0  0  0  0  0  0  0  0  0  0  0  0
   -0.7869   -1.4628   -0.2444 N   0  0  0  0  0  0  0  0  0  0  0  0
    0.5163   -1.6163   -0.0163 N   0  0  0  0  0  0  0  0  0  0  0  0
    1.3344   -0.5366    0.0762 C   0  0  0  0  0  0  0  0  0  0  0  0
  1  2  4  0
  2  3  4  0
  3  4  4  0
  4  5  4  0
  5  6  4  0
  6  1  4  0
M  END
$$$$

     RDKit          3D

  6  6  0  0  0  0  0  0  0  0999 V2000
    0.9595    0.9012    1.1397 N   0  0  0  0  0  0  0  0  0  0  0  0
   -0.3385    0.8970    1.4378 N   0  0  0  0  0  0  0  0  0  0  0  0
   -1.2462    1.4089    0.5682 C   0  0  0  0  0  0  0  0  0  0  0  0
   -0.8054    1.9734   -0.5847 N   0  0  0  0  0  0  0  0  0  0  0  0
    0.4930    1.9769   -0.8824 N   0  0  0  0  0  0  0  0  0  0  0  0
    1.3962    1.4181   -0.0371 C   0  0  0  0  0  0  0  0  0  0  0  0
  1  2  4  0
  2  3  4  0
  3  4  4  0
  4  5  4  0
  5  6  4  0
  6  1  4  0
M  END
$$$$

     RDKit          3D

  6  6  0  0  0  0  0  0  0  0999 V2000
   -0.1578   -1.1422    1.0866 N   0  0  0  0  0  0  0  0  0  0  0  0
    1.0371   -1.2118    0.5018 N   0  0  0  0  0  0  0  0  0  0  0  0
    1.3260   -0.4333   -0.5718 C   0  0  0  0  0  0  0  0  0  0  0  0
    0.3664    0.3950   -1.0569 N   0  0  0  0  0  0  0  0  0  0  0  0
   -0.8271    0.4652   -0.4699 N   0  0  0  0  0  0  0  0  0  0  0  0
   -1.1158   -0.3080    0.6062 C   0  0  0  0  0  0  0  0  0  0  0  0
  1  2  4  0
  2  3  4  0
  3  4  4  0
  4  5  4  0
  5  6  4  0
  6  1  4  0
M  END
$$$$

     RDKit          3D

  6  6  0  0  0  0  0  0  0  0999 V2000
   -0.5671   -0.5960   -0.8153 N   0  0  0  0  0  0  0  0  0  0  0  0
    0.6685   -0.7591   -0.3457 N   0  0  0  0  0  0  0  0  0  0  0  0
    1.1971    0.1252    0.5381 C   0  0  0  0  0  0  0  0  0  0  0  0
    0.4335    1.1709    0.9468 N   0  0  0  0  0  0  0  0  0  0  0  0
   -0.8027    1.3340    0.4785 N   0  0  0  0  0  0  0  0  0  0  0  0
   -1.3313    0.4483   -0.4031 C   0  0  0  0  0  0  0  0  0  0  0  0
  1  2  4  0
  2  3  4  0
  3  4  4  0
  4  5  4  0
  5  6  4  0
  6  1  4  0
M  END
$$$$

     RDKit          3D

  6  6  0  0  0  0  0  0  0  0999 V2000
    0.5709   -0.4819   -1.1534 N   0  0  0  0  0  0  0  0  0  0  0  0
   -0.6755   -0.0241   -1.2567 N   0  0  0  0  0  0  0  0  0  0  0  0
   -1.3545    0.3824   -0.1543 C   0  0  0  0  0  0  0  0  0  0  0  0
   -0.7304    0.3429    1.0503 N   0  0  0  0  0  0  0  0  0  0  0  0
    0.5162   -0.1152    1.1522 N   0  0  0  0  0  0  0  0  0  0  0  0
    1.1946   -0.5301    0.0509 C   0  0  0  0  0  0  0  0  0  0  0  0
  1  2  4  0
  2  3  4  0
  3  4  4  0
  4  5  4  0
  5  6  4  0
  6  1  4  0
M  END
$$$$

     RDKit          3D

  6  6  0  0  0  0  0  0  0  0999 V2000
    0.7374   -0.6408   -0.3775 N   0  0  0  0  0  0  0  0  0  0  0  0
   -0.4938   -0.3983   -0.8243 N   0  0  0  0  0  0  0  0  0  0  0  0
   -1.2048    0.6545   -0.3477 C   0  0  0  0  0  0  0  0  0  0  0  0
   -0.6299    1.4730    0.5687 N   0  0  0  0  0  0  0  0  0  0  0  0
    0.6023    1.2302    1.0129 N   0  0  0  0  0  0  0  0  0  0  0  0
    1.3141    0.1739    0.5402 C   0  0  0  0  0  0  0  0  0  0  0  0
  1  2  4  0
  2  3  4  0
  3  4  4  0
  4  5  4  0
  5  6  4  0
  6  1  4  0
M  END
$$$$

     RDKit          3D

  6  6  0  0  0  0  0  0  0  0999 V2000
   -0.3050   -1.2839    1.2087 N   0  0  0  0  0  0  0  0  0  0  0  0
    0.9118   -1.4794    0.7033 N   0  0  0  0  0  0  0  0  0  0  0  0
    1.3960   -0.6615   -0.2651 C   0  0  0  0  0  0  0  0  0  0  0  0
    0.6040    0.3344   -0.7362 N   0  0  0  0  0  0  0  0  0  0  0  0
   -0.6130    0.5279   -0.2309 N   0  0  0  0  0  0  0  0  0  0  0  0
   -1.0950   -0.2794    0.7472 C   0  0  0  0  0  0  0  0  0  0  0  0
  1  2  4  0
  2  3  4  0
  3  4  4  0
  4  5  4  0
  5  6  4  0
  6  1  4  0
M  END
$$$$

     RDKit          3D

  6  6  0  0  0  0  0  0  0  0999 V2000
   -0.7214   -1.1546    2.2061 N   0  0  0  0  0  0  0  0  0  0  0  0
    0.6005   -1.3002    2.1210 N   0  0  0  0  0  0  0  0  0  0  0  0
    1.3408   -0.4532    1.3607 C   0  0  0  0  0  0  0  0  0  0  0  0
    0.7164    0.5665    0.7241 N   0  0  0  0  0  0  0  0  0  0  0  0
   -0.6038    0.7130    0.8101 N   0  0  0  0  0  0  0  0  0  0  0  0
   -1.3518   -0.1558    1.5352 C   0  0  0  0  0  0  0  0  0  0  0  0
  1  2  4  0
  2  3  4  0
  3  4  4  0
  4  5  4  0
  5  6  4  0
  6  1  4  0
M  END
$$$$
