
     RDKit          3D

  4  3  0  0  0  0  0  0  0  0999 V2000
   -3.3014   -3.8378   -0.3692 N   0  0  0  0  0  0  0  0  0  0  0  0
   -2.4522   -3.0559   -0.2873 C   0  0  0  0  0  0  0  0  0  0  0  0
   -1.3944   -2.0806   -0.1857 C   0  0  0  0  0  0  0  0  0  0  0  0
   -0.1420   -2.5069    0.0623 C   0  0  0  0  0  0  0  0  0  0  0  0
  1  2  3  0
  2  3  1  0
  3  4  2  0
M  END
$$$$

     RDKit          3D

  4  3  0  0  0  0  0  0  0  0999 V2000
    3.1562   -3.8770   -0.7239 N   0  0  0  0  0  0  0  0  0  0  0  0
    2.3319   -3.0813   -0.5606 C   0  0  0  0  0  0  0  0  0  0  0  0
    1.3058   -2.0894   -0.3573 C   0  0  0  0  0  0  0  0  0  0  0  0
    0.0355   -2.4953   -0.1733 C   0  0  0  0  0  0  0  0  0  0  0  0
  1  2  3  0
  2  3  1  0
  3  4  2  0
M  END
$$$$

     RDKit          3D

  4  3  0  0  0  0  0  0  0  0999 V2000
   -0.8319   -3.6979   -3.2957 N   0  0  0  0  0  0  0  0  0  0  0  0
   -0.5228   -2.9194   -2.4973 C   0  0  0  0  0  0  0  0  0  0  0  0
   -0.1381   -1.9485   -1.5019 C   0  0  0  0  0  0  0  0  0  0  0  0
    1.1292   -1.9601   -1.0489 C   0  0  0  0  0  0  0  0  0  0  0  0
  1  2  3  0
  2  3  1  0
  3  4  2  0
M  END
$$$$

     RDKit          3D

  4  3  0  0  0  0  0  0  0  0999 V2000
   -0.6731    4.9595   -0.7722 N   0  0  0  0  0  0  0  0  0  0  0  0
   -0.6530    3.8251   -0.5445 C   0  0  0  0  0  0  0  0  0  0  0  0
   -0.6273    2.4108   -0.2606 C   0  0  0  0  0  0  0  0  0  0  0  0
   -1.7969    1.7714   -0.0736 C   0  0  0  0  0  0  0  0  0  0  0  0
  1  2  3  0
  2  3  1  0
  3  4  2  0
M  END
$$$$

     RDKit          3D

  4  3  0  0  0  0  0  0  0  0999 V2000
   -0.6752   -3.0381    3.9326 N   0  0  0  0  0  0  0  0  0  0  0  0
   -0.6488   -2.2911    3.0491 C   0  0  0  0  0  0  0  0  0  0  0  0
   -0.6149   -1.3610    1.9486 C   0  0  0  0  0  0  0  0  0  0  0  0
   -1.6431   -0.5092    1.7840 C   0  0  0  0  0  0  0  0  0  0  0  0
  1  2  3  0
  2  3  1  0
  3  4  2  0
M  END
$$$$

     RDKit          3D

  4  3  0  0  0  0  0  0  0  0999 V2000
   -0.3822    2.6187    1.4392 N   0  0  0  0  0  0  0  0  0  0  0  0
   -0.4668    1.6349    0.8356 C   0  0  0  0  0  0  0  0  0  0  0  0
   -0.5743    0.4051    0.0820 C   0  0  0  0  0  0  0  0  0  0  0  0
    0.5050   -0.3573   -0.1768 C   0  0  0  0  0  0  0  0  0  0  0  0
  1  2  3  0
  2  3  1  0
  3  4  2  0
M  END
$$$$

     RDKit          3D

  4  3  0  0  0  0  0  0  0  0999 V2000
    0.8245    1.3812   -2.5808 N   0  0  0  0  0  0  0  0  0  0  0  0
    0.2940    0.9086   -1.6673 C   0  0  0  0  0  0  0  0  0  0  0  0
   -0.3705    0.3176   -0.5267 C   0  0  0  0  0  0  0  0  0  0  0  0
    0.3256   -0.2588    0.4715 C   0  0  0  0  0  0  0  0  0  0  0  0
  1  2  3  0
  2  3  1  0
  3  4  2  0
M  END
$$$$

     RDKit          3D

  4  3  0  0  0  0  0  0  0  0999 V2000
   -0.3157    0.8505   -2.9508 N   0  0  0  0  0  0  0  0  0  0  0  0
   -0.4182    0.6011   -1.8253 C   0  0  0  0  0  0  0  0  0  0  0  0
   -0.5481    0.2890   -0.4190 C   0  0  0  0  0  0  0  0  0  0  0  0
    0.4857   -0.2012    0.2912 C   0  0  0  0  0  0  0  0  0  0  0  0
  1  2  3  0
  2  3  1  0
  3  4  2  0
M  END
$$$$

     RDKit          3D

  4  3  0  0  0  0  0  0  0  0999 V2000
    0.6998    0.3966    3.0806 N   0  0  0  0  0  0  0  0  0  0  0  0
    0.2149    0.2779    2.0366 C   0  0  0  0  0  0  0  0  0  0  0  0
   -0.3930    0.1294    0.7337 C   0  0  0  0  0  0  0  0  0  0  0  0
    0.3227   -0.2288   -0.3494 C   0  0  0  0  0  0  0  0  0  0  0  0
  1  2  3  0
  2  3  1  0
  3  4  2  0
M  END
$$$$

     RDKit          3D

  4  3  0  0  0  0  0  0  0  0999 V2000
   -0.1037    0.3026   -3.1382 N   0  0  0  0  0  0  0  0  0  0  0  0
   -0.2986    0.2114   -2.0011 C   0  0  0  0  0  0  0  0  0  0  0  0
   -0.5435    0.0973   -0.5800 C   0  0  0  0  0  0  0  0  0  0  0  0
    0.4526   -0.1629    0.2876 C   0  0  0  0  0  0  0  0  0  0  0  0
  1  2  3  0
  2  3  1  0
  3  4  2  0
M  END
$$$$

     RDKit          3D

  4  3  0  0  0  0  0  0  0  0999 V2000
   -0.9064   -2.6340    1.2726 N   0  0  0  0  0  0  0  0  0  0  0  0
   -0.3823   -1.7640    0.7179 C   0  0  0  0  0  0  0  0  0  0  0  0
    0.2744   -0.6775    0.0250 C   0  0  0  0  0  0  0  0  0  0  0  0
   -0.2669    0.5546   -0.0245 C   0  0  0  0  0  0  0  0  0  0  0  0
  1  2  3  0
  2  3  1  0
  3  4  2  0
M  END
$$$$

     RDKit          3D

  4  3  0  0  0  0  0  0  0  0999 V2000
   -0.4093   -2.9776   -0.1257 N   0  0  0  0  0  0  0  0  0  0  0  0
   -0.4820   -1.8300    0.0043 C   0  0  0  0  0  0  0  0  0  0  0  0
   -0.5734   -0.3955    0.1665 C   0  0  0  0  0  0  0  0  0  0  0  0
    0.5261    0.3793    0.1422 C   0  0  0  0  0  0  0  0  0  0  0  0
  1  2  3  0
  2  3  1  0
  3  4  2  0
M  END
$$$$

     RDKit          3D

  4  3  0  0  0  0  0  0  0  0999 V2000
    0.7081   -1.0855   -2.7563 N   0  0  0  0  0  0  0  0  0  0  0  0
    0.2163   -0.6798   -1.7904 C   0  0  0  0  0  0  0  0  0  0  0  0
   -0.3987   -0.1724   -0.5832 C   0  0  0  0  0  0  0  0  0  0  0  0
    0.3277    0.0505    0.5271 C   0  0  0  0  0  0  0  0  0  0  0  0
  1  2  3  0
  2  3  1  0
  3  4  2  0
M  END
$$$$

     RDKit          3D

  4  3  0  0  0  0  0  0  0  0999 V2000
   -0.2470   -2.1103    2.1456 N   0  0  0  0  0  0  0  0  0  0  0  0
   -0.3862   -1.3290    1.3033 C   0  0  0  0  0  0  0  0  0  0  0  0
   -0.5603   -0.3522    0.2502 C   0  0  0  0  0  0  0  0  0  0  0  0
    0.4956    0.2731   -0.3008 C   0  0  0  0  0  0  0  0  0  0  0  0
  1  2  3  0
  2  3  1  0
  3  4  2  0
M  END
$$$$

     RDKit          3D

  4  3  0  0  0  0  0  0  0  0999 V2000
    0.4780   -2.2434   -2.0962 N   0  0  0  0  0  0  0  0  0  0  0  0
    0.0721   -1.4711   -1.3360 C   0  0  0  0  0  0  0  0  0  0  0  0
   -0.4358   -0.5064   -0.3860 C   0  0  0  0  0  0  0  0  0  0  0  0
    0.3928    0.2269    0.3786 C   0  0  0  0  0  0  0  0  0  0  0  0
  1  2  3  0
  2  3  1  0
  3  4  2  0
M  END
$$$$

     RDKit          3D

  4  3  0  0  0  0  0  0  0  0999 V2000
   -0.0472    2.9975   -0.3366 N   0  0  0  0  0  0  0  0  0  0  0  0
   -0.2471    1.8895   -0.0691 C   0  0  0  0  0  0  0  0  0  0  0  0
   -0.4971    0.5041    0.2652 C   0  0  0  0  0  0  0  0  0  0  0  0
    0.4446   -0.4381    0.0782 C   0  0  0  0  0  0  0  0  0  0  0  0
  1  2  3  0
  2  3  1  0
  3  4  2  0
M  END
$$$$

     RDKit          3D

  4  3  0  0  0  0  0  0  0  0999 V2000
   -0.0644   -0.7369   -2.9532 N   0  0  0  0  0  0  0  0  0  0  0  0
    0.1806   -0.3898   -1.8767 C   0  0  0  0  0  0  0  0  0  0  0  0
    0.4868    0.0442   -0.5309 C   0  0  0  0  0  0  0  0  0  0  0  0
   -0.4354   -0.0154    0.4467 C   0  0  0  0  0  0  0  0  0  0  0  0
  1  2  3  0
  2  3  1  0
  3  4  2  0
M  END
$$$$

     RDKit          3D

  4  3  0  0  0  0  0  0  0  0999 V2000
    1.2493   -4.0205   -1.0008 N   0  0  0  0  0  0  0  0  0  0  0  0
    0.8521   -2.9571   -0.7754 C   0  0  0  0  0  0  0  0  0  0  0  0
    0.3585   -1.6349   -0.4949 C   0  0  0  0  0  0  0  0  0  0  0  0
   -0.6083   -1.1103   -1.2594 C   0  0  0  0  0  0  0  0  0  0  0  0
  1  2  3  0
  2  3  1  0
  3  4  2  0
M  END
$$$$

     RDKit          3D

  4  3  0  0  0  0  0  0  0  0999 V2000
    1.2493   -4.0205   -1.0008 N   0  0  0  0  0  0  0  0  0  0  0  0
    0.8521   -2.9571   -0.7754 C   0  0  0  0  0  0  0  0  0  0  0  0
    0.3585   -1.6349   -0.4949 C   0  0  0  0  0  0  0  0  0  0  0  0
   -0.6083   -1.1103   -1.2594 C   0  0  0  0  0  0  0  0  0  0  0  0
  1  2  3  0
  2  3  1  0
  3  4  2  0
M  END
$$$$

     RDKit          3D

  4  3  0  0  0  0  0  0  0  0999 V2000
    1.9498   -3.5272    1.6304 N   0  0  0  0  0  0  0  0  0  0  0  0
    1.3468   -2.6479    1.1802 C   0  0  0  0  0  0  0  0  0  0  0  0
    0.5973   -1.5546    0.6205 C   0  0  0  0  0  0  0  0  0  0  0  0
   -0.6637   -1.7522    0.2145 C   0  0  0  0  0  0  0  0  0  0  0  0
  1  2  3  0
  2  3  1  0
  3  4  2  0
M  END
$$$$

     RDKit          3D

  4  3  0  0  0  0  0  0  0  0999 V2000
    1.9498   -3.5272    1.6304 N   0  0  0  0  0  0  0  0  0  0  0  0
    1.3468   -2.6479    1.1802 C   0  0  0  0  0  0  0  0  0  0  0  0
    0.5973   -1.5546    0.6205 C   0  0  0  0  0  0  0  0  0  0  0  0
   -0.6637   -1.7522    0.2145 C   0  0  0  0  0  0  0  0  0  0  0  0
  1  2  3  0
  2  3  1  0
  3  4  2  0
M  END
$$$$

     RDKit          3D

  4  3  0  0  0  0  0  0  0  0999 V2000
   -0.3363   -2.9776   -3.0064 N   0  0  0  0  0  0  0  0  0  0  0  0
   -0.1961   -2.2533   -2.1147 C   0  0  0  0  0  0  0  0  0  0  0  0
   -0.0218   -1.3525   -1.0062 C   0  0  0  0  0  0  0  0  0  0  0  0
    0.6599   -1.7532    0.0749 C   0  0  0  0  0  0  0  0  0  0  0  0
  1  2  3  0
  2  3  1  0
  3  4  2  0
M  END
$$$$

     RDKit          3D

  4  3  0  0  0  0  0  0  0  0999 V2000
   -0.3363   -2.9776   -3.0064 N   0  0  0  0  0  0  0  0  0  0  0  0
   -0.1961   -2.2533   -2.1147 C   0  0  0  0  0  0  0  0  0  0  0  0
   -0.0218   -1.3525   -1.0062 C   0  0  0  0  0  0  0  0  0  0  0  0
    0.6599   -1.7532    0.0749 C   0  0  0  0  0  0  0  0  0  0  0  0
  1  2  3  0
  2  3  1  0
  3  4  2  0
M  END
$$$$

     RDKit          3D

  4  3  0  0  0  0  0  0  0  0999 V2000
   -0.6379    3.0444   -3.1063 N   0  0  0  0  0  0  0  0  0  0  0  0
   -0.4012    2.1926   -2.3595 C   0  0  0  0  0  0  0  0  0  0  0  0
   -0.1071    1.1336   -1.4308 C   0  0  0  0  0  0  0  0  0  0  0  0
    0.7996    0.2013   -1.7513 C   0  0  0  0  0  0  0  0  0  0  0  0
  1  2  3  0
  2  3  1  0
  3  4  2  0
M  END
$$$$

     RDKit          3D

  4  3  0  0  0  0  0  0  0  0999 V2000
   -0.6379    3.0444   -3.1063 N   0  0  0  0  0  0  0  0  0  0  0  0
   -0.4012    2.1926   -2.3595 C   0  0  0  0  0  0  0  0  0  0  0  0
   -0.1071    1.1336   -1.4308 C   0  0  0  0  0  0  0  0  0  0  0  0
    0.7996    0.2013   -1.7513 C   0  0  0  0  0  0  0  0  0  0  0  0
  1  2  3  0
  2  3  1  0
  3  4  2  0
M  END
$$$$

     RDKit          3D

  4  3  0  0  0  0  0  0  0  0999 V2000
   -0.3651   -2.7413    0.6051 N   0  0  0  0  0  0  0  0  0  0  0  0
   -0.4391   -1.6277    0.2990 C   0  0  0  0  0  0  0  0  0  0  0  0
   -0.5313   -0.2388   -0.0827 C   0  0  0  0  0  0  0  0  0  0  0  0
    0.5357    0.5708   -0.0825 C   0  0  0  0  0  0  0  0  0  0  0  0
  1  2  3  0
  2  3  1  0
  3  4  2  0
M  END
$$$$

     RDKit          3D

  4  3  0  0  0  0  0  0  0  0999 V2000
   -0.3651   -2.7413    0.6051 N   0  0  0  0  0  0  0  0  0  0  0  0
   -0.4391   -1.6277    0.2990 C   0  0  0  0  0  0  0  0  0  0  0  0
   -0.5313   -0.2388   -0.0827 C   0  0  0  0  0  0  0  0  0  0  0  0
    0.5357    0.5708   -0.0825 C   0  0  0  0  0  0  0  0  0  0  0  0
  1  2  3  0
  2  3  1  0
  3  4  2  0
M  END
$$$$

     RDKit          3D

  4  3  0  0  0  0  0  0  0  0999 V2000
   -1.4148   -0.7469   -2.3722 N   0  0  0  0  0  0  0  0  0  0  0  0
   -1.0301   -0.5383   -1.3008 C   0  0  0  0  0  0  0  0  0  0  0  0
   -0.5502   -0.2780    0.0352 C   0  0  0  0  0  0  0  0  0  0  0  0
    0.6884    0.1743    0.2702 C   0  0  0  0  0  0  0  0  0  0  0  0
  1  2  3  0
  2  3  1  0
  3  4  2  0
M  END
$$$$

     RDKit          3D

  4  3  0  0  0  0  0  0  0  0999 V2000
   -1.4148   -0.7469   -2.3722 N   0  0  0  0  0  0  0  0  0  0  0  0
   -1.0301   -0.5383   -1.3008 C   0  0  0  0  0  0  0  0  0  0  0  0
   -0.5502   -0.2780    0.0352 C   0  0  0  0  0  0  0  0  0  0  0  0
    0.6884    0.1743    0.2702 C   0  0  0  0  0  0  0  0  0  0  0  0
  1  2  3  0
  2  3  1  0
  3  4  2  0
M  END
$$$$

     RDKit          3D

  4  3  0  0  0  0  0  0  0  0999 V2000
    1.6569   -1.9708   -1.3159 N   0  0  0  0  0  0  0  0  0  0  0  0
    1.1024   -1.1999   -0.6545 C   0  0  0  0  0  0  0  0  0  0  0  0
    0.4107   -0.2383    0.1702 C   0  0  0  0  0  0  0  0  0  0  0  0
   -0.6075    0.4964   -0.2962 C   0  0  0  0  0  0  0  0  0  0  0  0
  1  2  3  0
  2  3  1  0
  3  4  2  0
M  END
$$$$

     RDKit          3D

  4  3  0  0  0  0  0  0  0  0999 V2000
    1.6569   -1.9708   -1.3159 N   0  0  0  0  0  0  0  0  0  0  0  0
    1.1024   -1.1999   -0.6545 C   0  0  0  0  0  0  0  0  0  0  0  0
    0.4107   -0.2383    0.1702 C   0  0  0  0  0  0  0  0  0  0  0  0
   -0.6075    0.4964   -0.2962 C   0  0  0  0  0  0  0  0  0  0  0  0
  1  2  3  0
  2  3  1  0
  3  4  2  0
M  END
$$$$

     RDKit          3D

  4  3  0  0  0  0  0  0  0  0999 V2000
    0.2462   -2.7771    0.9722 N   0  0  0  0  0  0  0  0  0  0  0  0
    0.3192   -1.6264    0.8724 C   0  0  0  0  0  0  0  0  0  0  0  0
    0.4102   -0.1913    0.7479 C   0  0  0  0  0  0  0  0  0  0  0  0
   -0.3967    0.5044   -0.0639 C   0  0  0  0  0  0  0  0  0  0  0  0
  1  2  3  0
  2  3  1  0
  3  4  2  0
M  END
$$$$

     RDKit          3D

  4  3  0  0  0  0  0  0  0  0999 V2000
    0.2462   -2.7771    0.9722 N   0  0  0  0  0  0  0  0  0  0  0  0
    0.3192   -1.6264    0.8724 C   0  0  0  0  0  0  0  0  0  0  0  0
    0.4102   -0.1913    0.7479 C   0  0  0  0  0  0  0  0  0  0  0  0
   -0.3967    0.5044   -0.0639 C   0  0  0  0  0  0  0  0  0  0  0  0
  1  2  3  0
  2  3  1  0
  3  4  2  0
M  END
$$$$
