
     RDKit          3D

  6  6  0  0  0  0  0  0  0  0999 V2000
    0.8630    0.1591    1.2926 N   0  0  0  0  0  0  0  0  0  0  0  0
   -0.4505    0.3290    1.4352 N   0  0  0  0  0  0  0  0  0  0  0  0
   -1.2742    0.2990    0.3559 C   0  0  0  0  0  0  0  0  0  0  0  0
   -0.7272    0.1224   -0.8743 N   0  0  0  0  0  0  0  0  0  0  0  0
    0.5862   -0.0474   -1.0162 N   0  0  0  0  0  0  0  0  0  0  0  0
    1.4076   -0.0461    0.0650 C   0  0  0  0  0  0  0  0  0  0  0  0
  1  2  4  0
  2  3  4  0
  3  4  4  0
  4  5  4  0
  5  6  4  0
  6  1  4  0
M  END
$$$$

     RDKit          3D

  6  6  0  0  0  0  0  0  0  0999 V2000
    0.8630    0.1591    1.2926 N   0  0  0  0  0  0  0  0  0  0  0  0
   -0.4505    0.3290    1.4352 N   0  0  0  0  0  0  0  0  0  0  0  0
   -1.2742    0.2990    0.3559 C   0  0  0  0  0  0  0  0  0  0  0  0
   -0.7272    0.1224   -0.8743 N   0  0  0  0  0  0  0  0  0  0  0  0
    0.5862   -0.0474   -1.0162 N   0  0  0  0  0  0  0  0  0  0  0  0
    1.4076   -0.0461    0.0650 C   0  0  0  0  0  0  0  0  0  0  0  0
  1  2  4  0
  2  3  4  0
  3  4  4  0
  4  5  4  0
  5  6  4  0
  6  1  4  0
M  END
$$$$

     RDKit          3D

  6  6  0  0  0  0  0  0  0  0999 V2000
    0.6419   -0.7156   -0.5147 N   0  0  0  0  0  0  0  0  0  0  0  0
   -0.6882   -0.6547   -0.4785 N   0  0  0  0  0  0  0  0  0  0  0  0
   -1.3186    0.4373    0.0253 C   0  0  0  0  0  0  0  0  0  0  0  0
   -0.5645    1.4739    0.4737 N   0  0  0  0  0  0  0  0  0  0  0  0
    0.7655    1.4124    0.4372 N   0  0  0  0  0  0  0  0  0  0  0  0
    1.3971    0.3197   -0.0638 C   0  0  0  0  0  0  0  0  0  0  0  0
  1  2  4  0
  2  3  4  0
  3  4  4  0
  4  5  4  0
  5  6  4  0
  6  1  4  0
M  END
$$$$

     RDKit          3D

  6  6  0  0  0  0  0  0  0  0999 V2000
    0.6419   -0.7156   -0.5147 N   0  0  0  0  0  0  0  0  0  0  0  0
   -0.6882   -0.6547   -0.4785 N   0  0  0  0  0  0  0  0  0  0  0  0
   -1.3186    0.4373    0.0253 C   0  0  0  0  0  0  0  0  0  0  0  0
   -0.5645    1.4739    0.4737 N   0  0  0  0  0  0  0  0  0  0  0  0
    0.7655    1.4124    0.4372 N   0  0  0  0  0  0  0  0  0  0  0  0
    1.3971    0.3197   -0.0638 C   0  0  0  0  0  0  0  0  0  0  0  0
  1  2  4  0
  2  3  4  0
  3  4  4  0
  4  5  4  0
  5  6  4  0
  6  1  4  0
M  END
$$$$

     RDKit          3D

  6  6  0  0  0  0  0  0  0  0999 V2000
   -0.6465   -0.0642    1.3412 N   0  0  0  0  0  0  0  0  0  0  0  0
    0.6840   -0.0117    1.3061 N   0  0  0  0  0  0  0  0  0  0  0  0
    1.3385    0.1970    0.1348 C   0  0  0  0  0  0  0  0  0  0  0  0
    0.6074    0.3699   -0.9964 N   0  0  0  0  0  0  0  0  0  0  0  0
   -0.7230    0.3172   -0.9607 N   0  0  0  0  0  0  0  0  0  0  0  0
   -1.3786    0.1057    0.2102 C   0  0  0  0  0  0  0  0  0  0  0  0
  1  2  4  0
  2  3  4  0
  3  4  4  0
  4  5  4  0
  5  6  4  0
  6  1  4  0
M  END
$$$$

     RDKit          3D

  6  6  0  0  0  0  0  0  0  0999 V2000
   -0.6465   -0.0642    1.3412 N   0  0  0  0  0  0  0  0  0  0  0  0
    0.6840   -0.0117    1.3061 N   0  0  0  0  0  0  0  0  0  0  0  0
    1.3385    0.1970    0.1348 C   0  0  0  0  0  0  0  0  0  0  0  0
    0.6074    0.3699   -0.9964 N   0  0  0  0  0  0  0  0  0  0  0  0
   -0.7230    0.3172   -0.9607 N   0  0  0  0  0  0  0  0  0  0  0  0
   -1.3786    0.1057    0.2102 C   0  0  0  0  0  0  0  0  0  0  0  0
  1  2  4  0
  2  3  4  0
  3  4  4  0
  4  5  4  0
  5  6  4  0
  6  1  4  0
M  END
$$$$

     RDKit          3D

  6  6  0  0  0  0  0  0  0  0999 V2000
   -0.8079    1.2973   -0.5249 N   0  0  0  0  0  0  0  0  0  0  0  0
    0.5115    1.3471   -0.7012 N   0  0  0  0  0  0  0  0  0  0  0  0
    1.2901    0.2723   -0.4130 C   0  0  0  0  0  0  0  0  0  0  0  0
    0.6918   -0.8633    0.0299 N   0  0  0  0  0  0  0  0  0  0  0  0
   -0.6274   -0.9124    0.2060 N   0  0  0  0  0  0  0  0  0  0  0  0
   -1.4039    0.1706   -0.0547 C   0  0  0  0  0  0  0  0  0  0  0  0
  1  2  4  0
  2  3  4  0
  3  4  4  0
  4  5  4  0
  5  6  4  0
  6  1  4  0
M  END
$$$$

     RDKit          3D

  6  6  0  0  0  0  0  0  0  0999 V2000
   -0.8079    1.2973   -0.5249 N   0  0  0  0  0  0  0  0  0  0  0  0
    0.5115    1.3471   -0.7012 N   0  0  0  0  0  0  0  0  0  0  0  0
    1.2901    0.2723   -0.4130 C   0  0  0  0  0  0  0  0  0  0  0  0
    0.6918   -0.8633    0.0299 N   0  0  0  0  0  0  0  0  0  0  0  0
   -0.6274   -0.9124    0.2060 N   0  0  0  0  0  0  0  0  0  0  0  0
   -1.4039    0.1706   -0.0547 C   0  0  0  0  0  0  0  0  0  0  0  0
  1  2  4  0
  2  3  4  0
  3  4  4  0
  4  5  4  0
  5  6  4  0
  6  1  4  0
M  END
$$$$

     RDKit          3D

  6  6  0  0  0  0  0  0  0  0999 V2000
   -0.6059   -0.9630   -0.1706 N   0  0  0  0  0  0  0  0  0  0  0  0
    0.7203   -0.8413   -0.1797 N   0  0  0  0  0  0  0  0  0  0  0  0
    1.3117    0.3255    0.1844 C   0  0  0  0  0  0  0  0  0  0  0  0
    0.5237    1.3557    0.5866 N   0  0  0  0  0  0  0  0  0  0  0  0
   -0.8027    1.2333    0.5955 N   0  0  0  0  0  0  0  0  0  0  0  0
   -1.3962    0.0756    0.2042 C   0  0  0  0  0  0  0  0  0  0  0  0
  1  2  4  0
  2  3  4  0
  3  4  4  0
  4  5  4  0
  5  6  4  0
  6  1  4  0
M  END
$$$$

     RDKit          3D

  6  6  0  0  0  0  0  0  0  0999 V2000
   -0.6059   -0.9630   -0.1706 N   0  0  0  0  0  0  0  0  0  0  0  0
    0.7203   -0.8413   -0.1797 N   0  0  0  0  0  0  0  0  0  0  0  0
    1.3117    0.3255    0.1844 C   0  0  0  0  0  0  0  0  0  0  0  0
    0.5237    1.3557    0.5866 N   0  0  0  0  0  0  0  0  0  0  0  0
   -0.8027    1.2333    0.5955 N   0  0  0  0  0  0  0  0  0  0  0  0
   -1.3962    0.0756    0.2042 C   0  0  0  0  0  0  0  0  0  0  0  0
  1  2  4  0
  2  3  4  0
  3  4  4  0
  4  5  4  0
  5  6  4  0
  6  1  4  0
M  END
$$$$

     RDKit          3D

  6  6  0  0  0  0  0  0  0  0999 V2000
    0.7116   -0.0725    0.9314 N   0  0  0  0  0  0  0  0  0  0  0  0
   -0.6175    0.0057    0.9702 N   0  0  0  0  0  0  0  0  0  0  0  0
   -1.3230    0.3686   -0.1318 C   0  0  0  0  0  0  0  0  0  0  0  0
   -0.6436    0.6685   -1.2687 N   0  0  0  0  0  0  0  0  0  0  0  0
    0.6855    0.5901   -1.3069 N   0  0  0  0  0  0  0  0  0  0  0  0
    1.3919    0.2246   -0.2063 C   0  0  0  0  0  0  0  0  0  0  0  0
  1  2  4  0
  2  3  4  0
  3  4  4  0
  4  5  4  0
  5  6  4  0
  6  1  4  0
M  END
$$$$

     RDKit          3D

  6  6  0  0  0  0  0  0  0  0999 V2000
    0.7116   -0.0725    0.9314 N   0  0  0  0  0  0  0  0  0  0  0  0
   -0.6175    0.0057    0.9702 N   0  0  0  0  0  0  0  0  0  0  0  0
   -1.3230    0.3686   -0.1318 C   0  0  0  0  0  0  0  0  0  0  0  0
   -0.6436    0.6685   -1.2687 N   0  0  0  0  0  0  0  0  0  0  0  0
    0.6855    0.5901   -1.3069 N   0  0  0  0  0  0  0  0  0  0  0  0
    1.3919    0.2246   -0.2063 C   0  0  0  0  0  0  0  0  0  0  0  0
  1  2  4  0
  2  3  4  0
  3  4  4  0
  4  5  4  0
  5  6  4  0
  6  1  4  0
M  END
$$$$

     RDKit          3D

  6  6  0  0  0  0  0  0  0  0999 V2000
    0.7960    1.3166   -0.3065 N   0  0  0  0  0  0  0  0  0  0  0  0
   -0.5287    1.4415   -0.2441 N   0  0  0  0  0  0  0  0  0  0  0  0
   -1.3030    0.4078    0.1755 C   0  0  0  0  0  0  0  0  0  0  0  0
   -0.6962   -0.7450    0.5582 N   0  0  0  0  0  0  0  0  0  0  0  0
    0.6284   -0.8693    0.4956 N   0  0  0  0  0  0  0  0  0  0  0  0
    1.4017    0.1537    0.0493 C   0  0  0  0  0  0  0  0  0  0  0  0
  1  2  4  0
  2  3  4  0
  3  4  4  0
  4  5  4  0
  5  6  4  0
  6  1  4  0
M  END
$$$$

     RDKit          3D

  6  6  0  0  0  0  0  0  0  0999 V2000
    0.7960    1.3166   -0.3065 N   0  0  0  0  0  0  0  0  0  0  0  0
   -0.5287    1.4415   -0.2441 N   0  0  0  0  0  0  0  0  0  0  0  0
   -1.3030    0.4078    0.1755 C   0  0  0  0  0  0  0  0  0  0  0  0
   -0.6962   -0.7450    0.5582 N   0  0  0  0  0  0  0  0  0  0  0  0
    0.6284   -0.8693    0.4956 N   0  0  0  0  0  0  0  0  0  0  0  0
    1.4017    0.1537    0.0493 C   0  0  0  0  0  0  0  0  0  0  0  0
  1  2  4  0
  2  3  4  0
  3  4  4  0
  4  5  4  0
  5  6  4  0
  6  1  4  0
M  END
$$$$

     RDKit          3D

  6  6  0  0  0  0  0  0  0  0999 V2000
   -0.5678   -0.8954   -0.4594 N   0  0  0  0  0  0  0  0  0  0  0  0
    0.7496   -0.7003   -0.4753 N   0  0  0  0  0  0  0  0  0  0  0  0
    1.2810    0.4771   -0.0569 C   0  0  0  0  0  0  0  0  0  0  0  0
    0.4390    1.4620    0.3497 N   0  0  0  0  0  0  0  0  0  0  0  0
   -0.8785    1.2663    0.3653 N   0  0  0  0  0  0  0  0  0  0  0  0
   -1.4091    0.0785   -0.0263 C   0  0  0  0  0  0  0  0  0  0  0  0
  1  2  4  0
  2  3  4  0
  3  4  4  0
  4  5  4  0
  5  6  4  0
  6  1  4  0
M  END
$$$$

     RDKit          3D

  6  6  0  0  0  0  0  0  0  0999 V2000
   -0.5678   -0.8954   -0.4594 N   0  0  0  0  0  0  0  0  0  0  0  0
    0.7496   -0.7003   -0.4753 N   0  0  0  0  0  0  0  0  0  0  0  0
    1.2810    0.4771   -0.0569 C   0  0  0  0  0  0  0  0  0  0  0  0
    0.4390    1.4620    0.3497 N   0  0  0  0  0  0  0  0  0  0  0  0
   -0.8785    1.2663    0.3653 N   0  0  0  0  0  0  0  0  0  0  0  0
   -1.4091    0.0785   -0.0263 C   0  0  0  0  0  0  0  0  0  0  0  0
  1  2  4  0
  2  3  4  0
  3  4  4  0
  4  5  4  0
  5  6  4  0
  6  1  4  0
M  END
$$$$

     RDKit          3D

  6  6  0  0  0  0  0  0  0  0999 V2000
   -0.8541    1.2753   -0.3905 N   0  0  0  0  0  0  0  0  0  0  0  0
    0.4577    1.4755   -0.2737 N   0  0  0  0  0  0  0  0  0  0  0  0
    1.2718    0.4869    0.1780 C   0  0  0  0  0  0  0  0  0  0  0  0
    0.7166   -0.6992    0.5363 N   0  0  0  0  0  0  0  0  0  0  0  0
   -0.5950   -0.8987    0.4194 N   0  0  0  0  0  0  0  0  0  0  0  0
   -1.4065    0.0792   -0.0590 C   0  0  0  0  0  0  0  0  0  0  0  0
  1  2  4  0
  2  3  4  0
  3  4  4  0
  4  5  4  0
  5  6  4  0
  6  1  4  0
M  END
$$$$

     RDKit          3D

  6  6  0  0  0  0  0  0  0  0999 V2000
   -0.8541    1.2753   -0.3905 N   0  0  0  0  0  0  0  0  0  0  0  0
    0.4577    1.4755   -0.2737 N   0  0  0  0  0  0  0  0  0  0  0  0
    1.2718    0.4869    0.1780 C   0  0  0  0  0  0  0  0  0  0  0  0
    0.7166   -0.6992    0.5363 N   0  0  0  0  0  0  0  0  0  0  0  0
   -0.5950   -0.8987    0.4194 N   0  0  0  0  0  0  0  0  0  0  0  0
   -1.4065    0.0792   -0.0590 C   0  0  0  0  0  0  0  0  0  0  0  0
  1  2  4  0
  2  3  4  0
  3  4  4  0
  4  5  4  0
  5  6  4  0
  6  1  4  0
M  END
$$$$

     RDKit          3D

  6  6  0  0  0  0  0  0  0  0999 V2000
   -0.7543    1.3505   -0.6075 N   0  0  0  0  0  0  0  0  0  0  0  0
    0.5764    1.4015   -0.6352 N   0  0  0  0  0  0  0  0  0  0  0  0
    1.3183    0.3087   -0.3198 C   0  0  0  0  0  0  0  0  0  0  0  0
    0.6748   -0.8419    0.0057 N   0  0  0  0  0  0  0  0  0  0  0  0
   -0.6559   -0.8922    0.0332 N   0  0  0  0  0  0  0  0  0  0  0  0
   -1.3990    0.2013   -0.2794 C   0  0  0  0  0  0  0  0  0  0  0  0
  1  2  4  0
  2  3  4  0
  3  4  4  0
  4  5  4  0
  5  6  4  0
  6  1  4  0
M  END
$$$$

     RDKit          3D

  6  6  0  0  0  0  0  0  0  0999 V2000
   -0.7543    1.3505   -0.6075 N   0  0  0  0  0  0  0  0  0  0  0  0
    0.5764    1.4015   -0.6352 N   0  0  0  0  0  0  0  0  0  0  0  0
    1.3183    0.3087   -0.3198 C   0  0  0  0  0  0  0  0  0  0  0  0
    0.6748   -0.8419    0.0057 N   0  0  0  0  0  0  0  0  0  0  0  0
   -0.6559   -0.8922    0.0332 N   0  0  0  0  0  0  0  0  0  0  0  0
   -1.3990    0.2013   -0.2794 C   0  0  0  0  0  0  0  0  0  0  0  0
  1  2  4  0
  2  3  4  0
  3  4  4  0
  4  5  4  0
  5  6  4  0
  6  1  4  0
M  END
$$$$

     RDKit          3D

  3  2  0  0  0  0  0  0  0  0999 V2000
   -0.9193   -3.2910    1.7996 C   0  0  0  0  0  0  0  0  0  0  0  0
   -0.2281   -2.2280    0.9932 C   0  0  0  0  0  0  0  0  0  0  0  0
    1.0077   -2.4746    0.5146 C   0  0  0  0  0  0  0  0  0  0  0  0
  1  2  1  0
  2  3  2  0
M  END
$$$$

     RDKit          3D

  3  2  0  0  0  0  0  0  0  0999 V2000
   -1.0860    2.3636   -2.9055 C   0  0  0  0  0  0  0  0  0  0  0  0
   -0.3295    1.4054   -2.0293 C   0  0  0  0  0  0  0  0  0  0  0  0
    0.9253    1.0571   -2.3775 C   0  0  0  0  0  0  0  0  0  0  0  0
  1  2  1  0
  2  3  2  0
M  END
$$$$

     RDKit          3D

  3  2  0  0  0  0  0  0  0  0999 V2000
    0.2968   -2.1427    0.4331 C   0  0  0  0  0  0  0  0  0  0  0  0
   -0.0983   -0.7562   -0.0048 C   0  0  0  0  0  0  0  0  0  0  0  0
    0.7896    0.1361   -0.4870 C   0  0  0  0  0  0  0  0  0  0  0  0
  1  2  1  0
  2  3  2  0
M  END
$$$$

     RDKit          3D

  3  2  0  0  0  0  0  0  0  0999 V2000
    0.6241   -1.5867    1.2145 C   0  0  0  0  0  0  0  0  0  0  0  0
    0.0006   -0.5752    0.2866 C   0  0  0  0  0  0  0  0  0  0  0  0
    0.7232    0.1497   -0.5900 C   0  0  0  0  0  0  0  0  0  0  0  0
  1  2  1  0
  2  3  2  0
M  END
$$$$

     RDKit          3D

  3  2  0  0  0  0  0  0  0  0999 V2000
    0.6141   -1.7623    0.9605 C   0  0  0  0  0  0  0  0  0  0  0  0
    0.0353   -0.4077    0.6396 C   0  0  0  0  0  0  0  0  0  0  0  0
    0.8029    0.6573    0.3351 C   0  0  0  0  0  0  0  0  0  0  0  0
  1  2  1  0
  2  3  2  0
M  END
$$$$

     RDKit          3D

  3  2  0  0  0  0  0  0  0  0999 V2000
    0.5065    1.6451    0.8284 C   0  0  0  0  0  0  0  0  0  0  0  0
   -0.0060    0.3458    0.2630 C   0  0  0  0  0  0  0  0  0  0  0  0
    0.8124   -0.6477   -0.1375 C   0  0  0  0  0  0  0  0  0  0  0  0
  1  2  1  0
  2  3  2  0
M  END
$$$$

     RDKit          3D

  3  2  0  0  0  0  0  0  0  0999 V2000
    0.3971    2.0446   -0.8528 C   0  0  0  0  0  0  0  0  0  0  0  0
   -0.0490    0.6810   -0.3903 C   0  0  0  0  0  0  0  0  0  0  0  0
    0.8096   -0.2417    0.0867 C   0  0  0  0  0  0  0  0  0  0  0  0
  1  2  1  0
  2  3  2  0
M  END
$$$$

     RDKit          3D

  3  2  0  0  0  0  0  0  0  0999 V2000
    0.2237   -1.0352    1.8311 C   0  0  0  0  0  0  0  0  0  0  0  0
   -0.1078   -0.3320    0.5396 C   0  0  0  0  0  0  0  0  0  0  0  0
    0.8377    0.0744   -0.3303 C   0  0  0  0  0  0  0  0  0  0  0  0
  1  2  1  0
  2  3  2  0
M  END
$$$$

     RDKit          3D

  3  2  0  0  0  0  0  0  0  0999 V2000
    0.4807   -0.4203    1.5963 C   0  0  0  0  0  0  0  0  0  0  0  0
   -0.0127    0.1176    0.2767 C   0  0  0  0  0  0  0  0  0  0  0  0
    0.8109    0.6782   -0.6307 C   0  0  0  0  0  0  0  0  0  0  0  0
  1  2  1  0
  2  3  2  0
M  END
$$$$

     RDKit          3D

  3  2  0  0  0  0  0  0  0  0999 V2000
    0.5426    0.3291    1.6549 C   0  0  0  0  0  0  0  0  0  0  0  0
   -0.0069   -0.1334    0.3288 C   0  0  0  0  0  0  0  0  0  0  0  0
    0.7693   -0.6862   -0.6240 C   0  0  0  0  0  0  0  0  0  0  0  0
  1  2  1  0
  2  3  2  0
M  END
$$$$

     RDKit          3D

  3  2  0  0  0  0  0  0  0  0999 V2000
    0.5073    1.5496    0.9620 C   0  0  0  0  0  0  0  0  0  0  0  0
    0.0134    0.2812    0.3150 C   0  0  0  0  0  0  0  0  0  0  0  0
    0.8449   -0.6574   -0.1768 C   0  0  0  0  0  0  0  0  0  0  0  0
  1  2  1  0
  2  3  2  0
M  END
$$$$

     RDKit          3D

  3  2  0  0  0  0  0  0  0  0999 V2000
    0.5535   -1.6222    1.0682 C   0  0  0  0  0  0  0  0  0  0  0  0
    0.0185   -0.4655    0.2621 C   0  0  0  0  0  0  0  0  0  0  0  0
    0.8227    0.3892   -0.4002 C   0  0  0  0  0  0  0  0  0  0  0  0
  1  2  1  0
  2  3  2  0
M  END
$$$$

     RDKit          3D

  3  2  0  0  0  0  0  0  0  0999 V2000
    0.3131   -0.2006   -2.0327 C   0  0  0  0  0  0  0  0  0  0  0  0
   -0.0610    0.1191   -0.6083 C   0  0  0  0  0  0  0  0  0  0  0  0
    0.8523    0.4220    0.3342 C   0  0  0  0  0  0  0  0  0  0  0  0
  1  2  1  0
  2  3  2  0
M  END
$$$$

     RDKit          3D

  3  2  0  0  0  0  0  0  0  0999 V2000
    0.4522   -1.7679    0.1221 C   0  0  0  0  0  0  0  0  0  0  0  0
   -0.0026   -0.3331    0.0461 C   0  0  0  0  0  0  0  0  0  0  0  0
    0.8375    0.7072    0.2084 C   0  0  0  0  0  0  0  0  0  0  0  0
  1  2  1  0
  2  3  2  0
M  END
$$$$
