
     RDKit          3D

  3  2  0  0  0  0  0  0  0  0999 V2000
    0.4945   -1.1290    1.7999 Cl  0  0  0  0  0  0  0  0  0  0  0  0
   -0.3420   -0.3265    0.4751 C   0  0  0  0  0  0  0  0  0  0  0  0
    0.3016    0.4443   -0.4070 C   0  0  0  0  0  0  0  0  0  0  0  0
  1  2  1  0
  2  3  2  0
M  END
$$$$

     RDKit          3D

  3  2  0  0  0  0  0  0  0  0999 V2000
   -0.3855   -1.5232    1.6924 Cl  0  0  0  0  0  0  0  0  0  0  0  0
   -0.5310   -0.1937    0.5478 C   0  0  0  0  0  0  0  0  0  0  0  0
    0.5041    0.2272   -0.1857 C   0  0  0  0  0  0  0  0  0  0  0  0
  1  2  1  0
  2  3  2  0
M  END
$$$$

     RDKit          3D

  3  2  0  0  0  0  0  0  0  0999 V2000
    0.9423    1.8834    0.8064 Cl  0  0  0  0  0  0  0  0  0  0  0  0
   -0.1851    0.6674    0.2155 C   0  0  0  0  0  0  0  0  0  0  0  0
    0.1575   -0.6190    0.0961 C   0  0  0  0  0  0  0  0  0  0  0  0
  1  2  1  0
  2  3  2  0
M  END
$$$$

     RDKit          3D

  3  2  0  0  0  0  0  0  0  0999 V2000
   -0.3960    0.3738   -2.0384 Cl  0  0  0  0  0  0  0  0  0  0  0  0
    0.3487   -0.0538   -0.5016 C   0  0  0  0  0  0  0  0  0  0  0  0
   -0.3121    0.0378    0.6566 C   0  0  0  0  0  0  0  0  0  0  0  0
  1  2  1  0
  2  3  2  0
M  END
$$$$

     RDKit          3D

  3  2  0  0  0  0  0  0  0  0999 V2000
   -0.6669   -3.5787   -1.1549 Cl  0  0  0  0  0  0  0  0  0  0  0  0
   -0.1814   -1.9798   -0.6226 C   0  0  0  0  0  0  0  0  0  0  0  0
    1.1028   -1.7432   -0.3343 C   0  0  0  0  0  0  0  0  0  0  0  0
  1  2  1  0
  2  3  2  0
M  END
$$$$

     RDKit          3D

  3  2  0  0  0  0  0  0  0  0999 V2000
   -1.1952   -3.0201   -1.7494 Cl  0  0  0  0  0  0  0  0  0  0  0  0
   -0.4918   -1.7169   -0.8103 C   0  0  0  0  0  0  0  0  0  0  0  0
    0.7470   -1.8494   -0.3241 C   0  0  0  0  0  0  0  0  0  0  0  0
  1  2  1  0
  2  3  2  0
M  END
$$$$

     RDKit          3D

  3  2  0  0  0  0  0  0  0  0999 V2000
    1.1848   -0.4370   -3.3993 Cl  0  0  0  0  0  0  0  0  0  0  0  0
    0.4773   -0.3047   -1.8001 C   0  0  0  0  0  0  0  0  0  0  0  0
   -0.7831   -0.7056   -1.6022 C   0  0  0  0  0  0  0  0  0  0  0  0
  1  2  1  0
  2  3  2  0
M  END
$$$$

     RDKit          3D

  4  3  0  0  0  0  0  0  0  0999 V2000
   -1.0316   -1.2201   -1.6494 Cl  0  0  0  0  0  0  0  0  0  0  0  0
    0.1487   -0.5269   -0.5410 C   0  0  0  0  0  0  0  0  0  0  0  0
   -0.1487    0.5269    0.2366 C   0  0  0  0  0  0  0  0  0  0  0  0
    1.0316    1.2201    1.3449 Cl  0  0  0  0  0  0  0  0  0  0  0  0
  1  2  1  0
  2  3  2  0
  3  4  1  0
M  END
$$$$

     RDKit          3D

  4  3  0  0  0  0  0  0  0  0999 V2000
   -1.0316   -1.2201   -1.6494 Cl  0  0  0  0  0  0  0  0  0  0  0  0
    0.1487   -0.5269   -0.5410 C   0  0  0  0  0  0  0  0  0  0  0  0
   -0.1487    0.5269    0.2366 C   0  0  0  0  0  0  0  0  0  0  0  0
    1.0316    1.2201    1.3449 Cl  0  0  0  0  0  0  0  0  0  0  0  0
  1  2  1  0
  2  3  2  0
  3  4  1  0
M  END
$$$$

     RDKit          3D

  4  3  0  0  0  0  0  0  0  0999 V2000
   -0.8180    0.6240   -1.7653 Cl  0  0  0  0  0  0  0  0  0  0  0  0
    0.2390    0.1117   -0.4529 C   0  0  0  0  0  0  0  0  0  0  0  0
   -0.2333   -0.1206    0.7827 C   0  0  0  0  0  0  0  0  0  0  0  0
    0.8238   -0.6328    2.0951 Cl  0  0  0  0  0  0  0  0  0  0  0  0
  1  2  1  0
  2  3  2  0
  3  4  1  0
M  END
$$$$

     RDKit          3D

  4  3  0  0  0  0  0  0  0  0999 V2000
   -0.8180    0.6240   -1.7653 Cl  0  0  0  0  0  0  0  0  0  0  0  0
    0.2390    0.1117   -0.4529 C   0  0  0  0  0  0  0  0  0  0  0  0
   -0.2333   -0.1206    0.7827 C   0  0  0  0  0  0  0  0  0  0  0  0
    0.8238   -0.6328    2.0951 Cl  0  0  0  0  0  0  0  0  0  0  0  0
  1  2  1  0
  2  3  2  0
  3  4  1  0
M  END
$$$$

     RDKit          3D

  4  3  0  0  0  0  0  0  0  0999 V2000
    0.6795    2.0377    0.5452 Cl  0  0  0  0  0  0  0  0  0  0  0  0
    0.5606    0.3836   -0.0480 C   0  0  0  0  0  0  0  0  0  0  0  0
   -0.5448   -0.3552    0.1413 C   0  0  0  0  0  0  0  0  0  0  0  0
   -0.6637   -2.0093   -0.4519 Cl  0  0  0  0  0  0  0  0  0  0  0  0
  1  2  1  0
  2  3  2  0
  3  4  1  0
M  END
$$$$

     RDKit          3D

  4  3  0  0  0  0  0  0  0  0999 V2000
    0.6795    2.0377    0.5452 Cl  0  0  0  0  0  0  0  0  0  0  0  0
    0.5606    0.3836   -0.0480 C   0  0  0  0  0  0  0  0  0  0  0  0
   -0.5448   -0.3552    0.1413 C   0  0  0  0  0  0  0  0  0  0  0  0
   -0.6637   -2.0093   -0.4519 Cl  0  0  0  0  0  0  0  0  0  0  0  0
  1  2  1  0
  2  3  2  0
  3  4  1  0
M  END
$$$$

     RDKit          3D

  4  3  0  0  0  0  0  0  0  0999 V2000
    0.0341   -1.2136   -1.9769 Cl  0  0  0  0  0  0  0  0  0  0  0  0
    0.4452   -0.3850   -0.4780 C   0  0  0  0  0  0  0  0  0  0  0  0
   -0.4452    0.3850    0.1687 C   0  0  0  0  0  0  0  0  0  0  0  0
   -0.0341    1.2136    1.6675 Cl  0  0  0  0  0  0  0  0  0  0  0  0
  1  2  1  0
  2  3  2  0
  3  4  1  0
M  END
$$$$

     RDKit          3D

  4  3  0  0  0  0  0  0  0  0999 V2000
    0.0341   -1.2136   -1.9769 Cl  0  0  0  0  0  0  0  0  0  0  0  0
    0.4452   -0.3850   -0.4780 C   0  0  0  0  0  0  0  0  0  0  0  0
   -0.4452    0.3850    0.1687 C   0  0  0  0  0  0  0  0  0  0  0  0
   -0.0341    1.2136    1.6675 Cl  0  0  0  0  0  0  0  0  0  0  0  0
  1  2  1  0
  2  3  2  0
  3  4  1  0
M  END
$$$$

     RDKit          3D

  4  3  0  0  0  0  0  0  0  0999 V2000
    1.6984   -1.0192   -3.2121 Cl  0  0  0  0  0  0  0  0  0  0  0  0
    0.8724   -0.7352   -1.6859 C   0  0  0  0  0  0  0  0  0  0  0  0
    0.3448   -1.7498   -0.9790 C   0  0  0  0  0  0  0  0  0  0  0  0
    0.4549   -3.4108   -1.5459 Cl  0  0  0  0  0  0  0  0  0  0  0  0
  1  2  1  0
  2  3  2  0
  3  4  1  0
M  END
$$$$

     RDKit          3D

  4  3  0  0  0  0  0  0  0  0999 V2000
    1.6984   -1.0192   -3.2121 Cl  0  0  0  0  0  0  0  0  0  0  0  0
    0.8724   -0.7352   -1.6859 C   0  0  0  0  0  0  0  0  0  0  0  0
    0.3448   -1.7498   -0.9790 C   0  0  0  0  0  0  0  0  0  0  0  0
    0.4549   -3.4108   -1.5459 Cl  0  0  0  0  0  0  0  0  0  0  0  0
  1  2  1  0
  2  3  2  0
  3  4  1  0
M  END
$$$$

     RDKit          3D

  4  3  0  0  0  0  0  0  0  0999 V2000
    1.3633   -2.2238    2.6711 Cl  0  0  0  0  0  0  0  0  0  0  0  0
    0.5489   -1.2630    1.4437 C   0  0  0  0  0  0  0  0  0  0  0  0
   -0.7874   -1.3056    1.2972 C   0  0  0  0  0  0  0  0  0  0  0  0
   -1.7866   -2.3254    2.3249 Cl  0  0  0  0  0  0  0  0  0  0  0  0
  1  2  1  0
  2  3  2  0
  3  4  1  0
M  END
$$$$

     RDKit          3D

  4  3  0  0  0  0  0  0  0  0999 V2000
    1.3633   -2.2238    2.6711 Cl  0  0  0  0  0  0  0  0  0  0  0  0
    0.5489   -1.2630    1.4437 C   0  0  0  0  0  0  0  0  0  0  0  0
   -0.7874   -1.3056    1.2972 C   0  0  0  0  0  0  0  0  0  0  0  0
   -1.7866   -2.3254    2.3249 Cl  0  0  0  0  0  0  0  0  0  0  0  0
  1  2  1  0
  2  3  2  0
  3  4  1  0
M  END
$$$$

     RDKit          3D

  4  3  0  0  0  0  0  0  0  0999 V2000
    1.3968   -3.5017   -0.2785 Cl  0  0  0  0  0  0  0  0  0  0  0  0
    0.5675   -1.9547   -0.1710 C   0  0  0  0  0  0  0  0  0  0  0  0
   -0.7724   -1.8751   -0.2464 C   0  0  0  0  0  0  0  0  0  0  0  0
   -1.7614   -3.3139   -0.4561 Cl  0  0  0  0  0  0  0  0  0  0  0  0
  1  2  1  0
  2  3  2  0
  3  4  1  0
M  END
$$$$

     RDKit          3D

  4  3  0  0  0  0  0  0  0  0999 V2000
    1.3968   -3.5017   -0.2785 Cl  0  0  0  0  0  0  0  0  0  0  0  0
    0.5675   -1.9547   -0.1710 C   0  0  0  0  0  0  0  0  0  0  0  0
   -0.7724   -1.8751   -0.2464 C   0  0  0  0  0  0  0  0  0  0  0  0
   -1.7614   -3.3139   -0.4561 Cl  0  0  0  0  0  0  0  0  0  0  0  0
  1  2  1  0
  2  3  2  0
  3  4  1  0
M  END
$$$$
