
     RDKit          3D

  7  7  0  0  0  0  0  0  0  0999 V2000
   -1.4831   -1.9398   -1.1905 F   0  0  0  0  0  0  0  0  0  0  0  0
   -0.7654   -0.9935   -0.5330 C   0  0  0  0  0  0  0  0  0  0  0  0
    0.6304   -1.0778   -0.5343 C   0  0  0  0  0  0  0  0  0  0  0  0
    1.4062   -0.1002    0.1107 C   0  0  0  0  0  0  0  0  0  0  0  0
    0.7602    0.9714    0.7485 C   0  0  0  0  0  0  0  0  0  0  0  0
   -0.6343    1.0580    0.7511 C   0  0  0  0  0  0  0  0  0  0  0  0
   -1.4108    0.0777    0.1119 C   0  0  0  0  0  0  0  0  0  0  0  0
  1  2  1  0
  2  3  4  0
  3  4  4  0
  4  5  4  0
  5  6  4  0
  6  7  4  0
  7  2  4  0
M  END
$$$$

     RDKit          3D

  7  7  0  0  0  0  0  0  0  0999 V2000
    1.3759    1.5887   -2.0072 F   0  0  0  0  0  0  0  0  0  0  0  0
    0.7097    0.7952   -1.1301 C   0  0  0  0  0  0  0  0  0  0  0  0
   -0.6865    0.8575   -1.0840 C   0  0  0  0  0  0  0  0  0  0  0  0
   -1.4072    0.0725   -0.1685 C   0  0  0  0  0  0  0  0  0  0  0  0
   -0.7046   -0.7690    0.7094 C   0  0  0  0  0  0  0  0  0  0  0  0
    0.6904   -0.8330    0.6653 C   0  0  0  0  0  0  0  0  0  0  0  0
    1.4113   -0.0532   -0.2538 C   0  0  0  0  0  0  0  0  0  0  0  0
  1  2  1  0
  2  3  4  0
  3  4  4  0
  4  5  4  0
  5  6  4  0
  6  7  4  0
  7  2  4  0
M  END
$$$$

     RDKit          3D

  7  7  0  0  0  0  0  0  0  0999 V2000
    1.2771    0.8418    2.3036 F   0  0  0  0  0  0  0  0  0  0  0  0
    0.6607    0.4209    1.1698 C   0  0  0  0  0  0  0  0  0  0  0  0
   -0.7362    0.3660    1.1372 C   0  0  0  0  0  0  0  0  0  0  0  0
   -1.4091   -0.0318   -0.0301 C   0  0  0  0  0  0  0  0  0  0  0  0
   -0.6582   -0.3836   -1.1637 C   0  0  0  0  0  0  0  0  0  0  0  0
    0.7376   -0.3295   -1.1337 C   0  0  0  0  0  0  0  0  0  0  0  0
    1.4109    0.0743    0.0309 C   0  0  0  0  0  0  0  0  0  0  0  0
  1  2  1  0
  2  3  4  0
  3  4  4  0
  4  5  4  0
  5  6  4  0
  6  7  4  0
  7  2  4  0
M  END
$$$$

     RDKit          3D

  7  7  0  0  0  0  0  0  0  0999 V2000
   -1.3454    0.3539   -2.4118 F   0  0  0  0  0  0  0  0  0  0  0  0
   -0.6954    0.1853   -1.2321 C   0  0  0  0  0  0  0  0  0  0  0  0
    0.7019    0.2369   -1.2139 C   0  0  0  0  0  0  0  0  0  0  0  0
    1.4094    0.0327   -0.0175 C   0  0  0  0  0  0  0  0  0  0  0  0
    0.6927   -0.2151    1.1647 C   0  0  0  0  0  0  0  0  0  0  0  0
   -0.7034   -0.2671    1.1491 C   0  0  0  0  0  0  0  0  0  0  0  0
   -1.4112   -0.0695   -0.0478 C   0  0  0  0  0  0  0  0  0  0  0  0
  1  2  1  0
  2  3  4  0
  3  4  4  0
  4  5  4  0
  5  6  4  0
  6  7  4  0
  7  2  4  0
M  END
$$$$

     RDKit          3D

  7  7  0  0  0  0  0  0  0  0999 V2000
   -1.5228   -2.1084    0.8798 F   0  0  0  0  0  0  0  0  0  0  0  0
   -0.7857   -1.0703    0.4087 C   0  0  0  0  0  0  0  0  0  0  0  0
    0.6032   -1.2077    0.3236 C   0  0  0  0  0  0  0  0  0  0  0  0
    1.3996   -0.1471   -0.1396 C   0  0  0  0  0  0  0  0  0  0  0  0
    0.7819    1.0600   -0.5057 C   0  0  0  0  0  0  0  0  0  0  0  0
   -0.6056    1.2004   -0.4198 C   0  0  0  0  0  0  0  0  0  0  0  0
   -1.4030    0.1382    0.0366 C   0  0  0  0  0  0  0  0  0  0  0  0
  1  2  1  0
  2  3  4  0
  3  4  4  0
  4  5  4  0
  5  6  4  0
  6  7  4  0
  7  2  4  0
M  END
$$$$

     RDKit          3D

  7  7  0  0  0  0  0  0  0  0999 V2000
   -1.4479    1.4875   -1.8876 F   0  0  0  0  0  0  0  0  0  0  0  0
   -0.7470    0.7844   -0.9618 C   0  0  0  0  0  0  0  0  0  0  0  0
    0.6504    0.8141   -1.0022 C   0  0  0  0  0  0  0  0  0  0  0  0
    1.4084    0.1154   -0.0478 C   0  0  0  0  0  0  0  0  0  0  0  0
    0.7423   -0.6054    0.9570 C   0  0  0  0  0  0  0  0  0  0  0  0
   -0.6538   -0.6352    1.0006 C   0  0  0  0  0  0  0  0  0  0  0  0
   -1.4122    0.0574    0.0426 C   0  0  0  0  0  0  0  0  0  0  0  0
  1  2  1  0
  2  3  4  0
  3  4  4  0
  4  5  4  0
  5  6  4  0
  6  7  4  0
  7  2  4  0
M  END
$$$$

     RDKit          3D

  7  7  0  0  0  0  0  0  0  0999 V2000
   -1.0881   -1.0494    2.3320 F   0  0  0  0  0  0  0  0  0  0  0  0
   -0.5644   -0.5211    1.1964 C   0  0  0  0  0  0  0  0  0  0  0  0
    0.8229   -0.5290    1.0214 C   0  0  0  0  0  0  0  0  0  0  0  0
    1.3987   -0.0097   -0.1501 C   0  0  0  0  0  0  0  0  0  0  0  0
    0.5598    0.5077   -1.1507 C   0  0  0  0  0  0  0  0  0  0  0  0
   -0.8267    0.5151   -0.9790 C   0  0  0  0  0  0  0  0  0  0  0  0
   -1.4027    0.0024    0.1949 C   0  0  0  0  0  0  0  0  0  0  0  0
  1  2  1  0
  2  3  4  0
  3  4  4  0
  4  5  4  0
  5  6  4  0
  6  7  4  0
  7  2  4  0
M  END
$$$$

     RDKit          3D

  7  7  0  0  0  0  0  0  0  0999 V2000
   -1.2809    2.3663   -0.7953 F   0  0  0  0  0  0  0  0  0  0  0  0
   -0.6623    1.1987   -0.4843 C   0  0  0  0  0  0  0  0  0  0  0  0
    0.7350    1.1474   -0.4949 C   0  0  0  0  0  0  0  0  0  0  0  0
    1.4086   -0.0505   -0.2032 C   0  0  0  0  0  0  0  0  0  0  0  0
    0.6584   -1.1962    0.1083 C   0  0  0  0  0  0  0  0  0  0  0  0
   -0.7379   -1.1479    0.1178 C   0  0  0  0  0  0  0  0  0  0  0  0
   -1.4122    0.0478   -0.1792 C   0  0  0  0  0  0  0  0  0  0  0  0
  1  2  1  0
  2  3  4  0
  3  4  4  0
  4  5  4  0
  5  6  4  0
  6  7  4  0
  7  2  4  0
M  END
$$$$

     RDKit          3D

  7  7  0  0  0  0  0  0  0  0999 V2000
   -1.1742   -2.4834   -0.1469 F   0  0  0  0  0  0  0  0  0  0  0  0
   -0.6072   -1.2653    0.0468 C   0  0  0  0  0  0  0  0  0  0  0  0
    0.7851   -1.1483   -0.0076 C   0  0  0  0  0  0  0  0  0  0  0  0
    1.4045    0.1023    0.1553 C   0  0  0  0  0  0  0  0  0  0  0  0
    0.6039    1.2385    0.3580 C   0  0  0  0  0  0  0  0  0  0  0  0
   -0.7876    1.1242    0.4109 C   0  0  0  0  0  0  0  0  0  0  0  0
   -1.4060   -0.1281    0.2660 C   0  0  0  0  0  0  0  0  0  0  0  0
  1  2  1  0
  2  3  4  0
  3  4  4  0
  4  5  4  0
  5  6  4  0
  6  7  4  0
  7  2  4  0
M  END
$$$$

     RDKit          3D

  7  7  0  0  0  0  0  0  0  0999 V2000
    1.0629    2.1014    1.5561 F   0  0  0  0  0  0  0  0  0  0  0  0
    0.5502    1.0814    0.8216 C   0  0  0  0  0  0  0  0  0  0  0  0
   -0.8343    0.8856    0.8054 C   0  0  0  0  0  0  0  0  0  0  0  0
   -1.3974   -0.1798    0.0831 C   0  0  0  0  0  0  0  0  0  0  0  0
   -0.5481   -1.0572   -0.6111 C   0  0  0  0  0  0  0  0  0  0  0  0
    0.8356   -0.8646   -0.5949 C   0  0  0  0  0  0  0  0  0  0  0  0
    1.3974    0.2105    0.1123 C   0  0  0  0  0  0  0  0  0  0  0  0
  1  2  1  0
  2  3  4  0
  3  4  4  0
  4  5  4  0
  5  6  4  0
  6  7  4  0
  7  2  4  0
M  END
$$$$

     RDKit          3D

  7  7  0  0  0  0  0  0  0  0999 V2000
    1.3907   -2.3452   -0.6099 F   0  0  0  0  0  0  0  0  0  0  0  0
    0.7204   -1.1977   -0.3329 C   0  0  0  0  0  0  0  0  0  0  0  0
   -0.6738   -1.2338   -0.2308 C   0  0  0  0  0  0  0  0  0  0  0  0
   -1.4034   -0.0582    0.0132 C   0  0  0  0  0  0  0  0  0  0  0  0
   -0.7134    1.1589    0.1383 C   0  0  0  0  0  0  0  0  0  0  0  0
    0.6795    1.1974    0.0366 C   0  0  0  0  0  0  0  0  0  0  0  0
    1.4103    0.0201   -0.1901 C   0  0  0  0  0  0  0  0  0  0  0  0
  1  2  1  0
  2  3  4  0
  3  4  4  0
  4  5  4  0
  5  6  4  0
  6  7  4  0
  7  2  4  0
M  END
$$$$

     RDKit          3D

  7  7  0  0  0  0  0  0  0  0999 V2000
    1.2258   -1.8759    1.6748 F   0  0  0  0  0  0  0  0  0  0  0  0
    0.6348   -0.9680    0.8568 C   0  0  0  0  0  0  0  0  0  0  0  0
   -0.7612   -0.9213    0.7909 C   0  0  0  0  0  0  0  0  0  0  0  0
   -1.4077    0.0359   -0.0089 C   0  0  0  0  0  0  0  0  0  0  0  0
   -0.6313    0.9441   -0.7474 C   0  0  0  0  0  0  0  0  0  0  0  0
    0.7637    0.8994   -0.6831 C   0  0  0  0  0  0  0  0  0  0  0  0
    1.4101   -0.0600    0.1127 C   0  0  0  0  0  0  0  0  0  0  0  0
  1  2  1  0
  2  3  4  0
  3  4  4  0
  4  5  4  0
  5  6  4  0
  6  7  4  0
  7  2  4  0
M  END
$$$$

     RDKit          3D

  6  6  0  0  0  0  0  0  0  0999 V2000
    0.5740   -0.5232   -0.9397 N   0  0  0  0  0  0  0  0  0  0  0  0
    1.8794   -0.6866   -0.7314 N   0  0  0  0  0  0  0  0  0  0  0  0
    2.5085   -0.0348    0.2811 C   0  0  0  0  0  0  0  0  0  0  0  0
    1.7738    0.7825    1.0799 N   0  0  0  0  0  0  0  0  0  0  0  0
    0.4684    0.9460    0.8710 N   0  0  0  0  0  0  0  0  0  0  0  0
   -0.1558    0.3058   -0.1511 C   0  0  0  0  0  0  0  0  0  0  0  0
  1  2  4  0
  2  3  4  0
  3  4  4  0
  4  5  4  0
  5  6  4  0
  6  1  4  0
M  END
$$$$

     RDKit          3D

  6  6  0  0  0  0  0  0  0  0999 V2000
    0.5740   -0.5232   -0.9397 N   0  0  0  0  0  0  0  0  0  0  0  0
    1.8794   -0.6866   -0.7314 N   0  0  0  0  0  0  0  0  0  0  0  0
    2.5085   -0.0348    0.2811 C   0  0  0  0  0  0  0  0  0  0  0  0
    1.7738    0.7825    1.0799 N   0  0  0  0  0  0  0  0  0  0  0  0
    0.4684    0.9460    0.8710 N   0  0  0  0  0  0  0  0  0  0  0  0
   -0.1558    0.3058   -0.1511 C   0  0  0  0  0  0  0  0  0  0  0  0
  1  2  4  0
  2  3  4  0
  3  4  4  0
  4  5  4  0
  5  6  4  0
  6  1  4  0
M  END
$$$$

     RDKit          3D

  6  6  0  0  0  0  0  0  0  0999 V2000
    0.5967   -0.8016    0.6341 N   0  0  0  0  0  0  0  0  0  0  0  0
    1.9139   -0.6068    0.6664 N   0  0  0  0  0  0  0  0  0  0  0  0
    2.5100    0.2573   -0.1960 C   0  0  0  0  0  0  0  0  0  0  0  0
    1.7303    0.9227   -1.0877 N   0  0  0  0  0  0  0  0  0  0  0  0
    0.4130    0.7274   -1.1199 N   0  0  0  0  0  0  0  0  0  0  0  0
   -0.1792   -0.1484   -0.2676 C   0  0  0  0  0  0  0  0  0  0  0  0
  1  2  4  0
  2  3  4  0
  3  4  4  0
  4  5  4  0
  5  6  4  0
  6  1  4  0
M  END
$$$$

     RDKit          3D

  6  6  0  0  0  0  0  0  0  0999 V2000
    0.5967   -0.8016    0.6341 N   0  0  0  0  0  0  0  0  0  0  0  0
    1.9139   -0.6068    0.6664 N   0  0  0  0  0  0  0  0  0  0  0  0
    2.5100    0.2573   -0.1960 C   0  0  0  0  0  0  0  0  0  0  0  0
    1.7303    0.9227   -1.0877 N   0  0  0  0  0  0  0  0  0  0  0  0
    0.4130    0.7274   -1.1199 N   0  0  0  0  0  0  0  0  0  0  0  0
   -0.1792   -0.1484   -0.2676 C   0  0  0  0  0  0  0  0  0  0  0  0
  1  2  4  0
  2  3  4  0
  3  4  4  0
  4  5  4  0
  5  6  4  0
  6  1  4  0
M  END
$$$$

     RDKit          3D

  6  6  0  0  0  0  0  0  0  0999 V2000
    0.5482   -1.0470   -0.0026 N   0  0  0  0  0  0  0  0  0  0  0  0
    1.8657   -0.9894   -0.1894 N   0  0  0  0  0  0  0  0  0  0  0  0
    2.5212    0.2000   -0.1545 C   0  0  0  0  0  0  0  0  0  0  0  0
    1.8005    1.3298    0.0691 N   0  0  0  0  0  0  0  0  0  0  0  0
    0.4829    1.2718    0.2562 N   0  0  0  0  0  0  0  0  0  0  0  0
   -0.1684    0.0804    0.2366 C   0  0  0  0  0  0  0  0  0  0  0  0
  1  2  4  0
  2  3  4  0
  3  4  4  0
  4  5  4  0
  5  6  4  0
  6  1  4  0
M  END
$$$$

     RDKit          3D

  6  6  0  0  0  0  0  0  0  0999 V2000
    0.5482   -1.0470   -0.0026 N   0  0  0  0  0  0  0  0  0  0  0  0
    1.8657   -0.9894   -0.1894 N   0  0  0  0  0  0  0  0  0  0  0  0
    2.5212    0.2000   -0.1545 C   0  0  0  0  0  0  0  0  0  0  0  0
    1.8005    1.3298    0.0691 N   0  0  0  0  0  0  0  0  0  0  0  0
    0.4829    1.2718    0.2562 N   0  0  0  0  0  0  0  0  0  0  0  0
   -0.1684    0.0804    0.2366 C   0  0  0  0  0  0  0  0  0  0  0  0
  1  2  4  0
  2  3  4  0
  3  4  4  0
  4  5  4  0
  5  6  4  0
  6  1  4  0
M  END
$$$$

     RDKit          3D

  6  6  0  0  0  0  0  0  0  0999 V2000
    0.6448    1.0610   -0.2810 N   0  0  0  0  0  0  0  0  0  0  0  0
    1.9624    0.8706   -0.3215 N   0  0  0  0  0  0  0  0  0  0  0  0
    2.5078   -0.3041    0.0888 C   0  0  0  0  0  0  0  0  0  0  0  0
    1.6772   -1.2823    0.5351 N   0  0  0  0  0  0  0  0  0  0  0  0
    0.3595   -1.0915    0.5758 N   0  0  0  0  0  0  0  0  0  0  0  0
   -0.1826    0.0891    0.1802 C   0  0  0  0  0  0  0  0  0  0  0  0
  1  2  4  0
  2  3  4  0
  3  4  4  0
  4  5  4  0
  5  6  4  0
  6  1  4  0
M  END
$$$$

     RDKit          3D

  6  6  0  0  0  0  0  0  0  0999 V2000
    0.6448    1.0610   -0.2810 N   0  0  0  0  0  0  0  0  0  0  0  0
    1.9624    0.8706   -0.3215 N   0  0  0  0  0  0  0  0  0  0  0  0
    2.5078   -0.3041    0.0888 C   0  0  0  0  0  0  0  0  0  0  0  0
    1.6772   -1.2823    0.5351 N   0  0  0  0  0  0  0  0  0  0  0  0
    0.3595   -1.0915    0.5758 N   0  0  0  0  0  0  0  0  0  0  0  0
   -0.1826    0.0891    0.1802 C   0  0  0  0  0  0  0  0  0  0  0  0
  1  2  4  0
  2  3  4  0
  3  4  4  0
  4  5  4  0
  5  6  4  0
  6  1  4  0
M  END
$$$$

     RDKit          3D

  6  6  0  0  0  0  0  0  0  0999 V2000
    0.6783    0.2028    1.2083 N   0  0  0  0  0  0  0  0  0  0  0  0
    1.9936    0.1199    1.0154 N   0  0  0  0  0  0  0  0  0  0  0  0
    2.4979   -0.2174   -0.2002 C   0  0  0  0  0  0  0  0  0  0  0  0
    1.6293   -0.4618   -1.2160 N   0  0  0  0  0  0  0  0  0  0  0  0
    0.3140   -0.3792   -1.0226 N   0  0  0  0  0  0  0  0  0  0  0  0
   -0.1887   -0.0574    0.1971 C   0  0  0  0  0  0  0  0  0  0  0  0
  1  2  4  0
  2  3  4  0
  3  4  4  0
  4  5  4  0
  5  6  4  0
  6  1  4  0
M  END
$$$$

     RDKit          3D

  6  6  0  0  0  0  0  0  0  0999 V2000
    0.6783    0.2028    1.2083 N   0  0  0  0  0  0  0  0  0  0  0  0
    1.9936    0.1199    1.0154 N   0  0  0  0  0  0  0  0  0  0  0  0
    2.4979   -0.2174   -0.2002 C   0  0  0  0  0  0  0  0  0  0  0  0
    1.6293   -0.4618   -1.2160 N   0  0  0  0  0  0  0  0  0  0  0  0
    0.3140   -0.3792   -1.0226 N   0  0  0  0  0  0  0  0  0  0  0  0
   -0.1887   -0.0574    0.1971 C   0  0  0  0  0  0  0  0  0  0  0  0
  1  2  4  0
  2  3  4  0
  3  4  4  0
  4  5  4  0
  5  6  4  0
  6  1  4  0
M  END
$$$$

     RDKit          3D

  6  6  0  0  0  0  0  0  0  0999 V2000
    0.6059   -0.5983   -0.9882 N   0  0  0  0  0  0  0  0  0  0  0  0
    1.9117   -0.3359   -1.0026 N   0  0  0  0  0  0  0  0  0  0  0  0
    2.4995    0.3228    0.0300 C   0  0  0  0  0  0  0  0  0  0  0  0
    1.7232    0.7133    1.0743 N   0  0  0  0  0  0  0  0  0  0  0  0
    0.4174    0.4504    1.0885 N   0  0  0  0  0  0  0  0  0  0  0  0
   -0.1657   -0.2219    0.0628 C   0  0  0  0  0  0  0  0  0  0  0  0
  1  2  4  0
  2  3  4  0
  3  4  4  0
  4  5  4  0
  5  6  4  0
  6  1  4  0
M  END
$$$$

     RDKit          3D

  6  6  0  0  0  0  0  0  0  0999 V2000
    0.6059   -0.5983   -0.9882 N   0  0  0  0  0  0  0  0  0  0  0  0
    1.9117   -0.3359   -1.0026 N   0  0  0  0  0  0  0  0  0  0  0  0
    2.4995    0.3228    0.0300 C   0  0  0  0  0  0  0  0  0  0  0  0
    1.7232    0.7133    1.0743 N   0  0  0  0  0  0  0  0  0  0  0  0
    0.4174    0.4504    1.0885 N   0  0  0  0  0  0  0  0  0  0  0  0
   -0.1657   -0.2219    0.0628 C   0  0  0  0  0  0  0  0  0  0  0  0
  1  2  4  0
  2  3  4  0
  3  4  4  0
  4  5  4  0
  5  6  4  0
  6  1  4  0
M  END
$$$$

     RDKit          3D

  6  6  0  0  0  0  0  0  0  0999 V2000
    0.5418    0.6190   -1.1995 N   0  0  0  0  0  0  0  0  0  0  0  0
    1.8678    0.6916   -1.0955 N   0  0  0  0  0  0  0  0  0  0  0  0
    2.5274    0.0065   -0.1253 C   0  0  0  0  0  0  0  0  0  0  0  0
    1.8024   -0.7488    0.7405 N   0  0  0  0  0  0  0  0  0  0  0  0
    0.4765   -0.8208    0.6364 N   0  0  0  0  0  0  0  0  0  0  0  0
   -0.1799   -0.1489   -0.3430 C   0  0  0  0  0  0  0  0  0  0  0  0
  1  2  4  0
  2  3  4  0
  3  4  4  0
  4  5  4  0
  5  6  4  0
  6  1  4  0
M  END
$$$$

     RDKit          3D

  6  6  0  0  0  0  0  0  0  0999 V2000
    0.5418    0.6190   -1.1995 N   0  0  0  0  0  0  0  0  0  0  0  0
    1.8678    0.6916   -1.0955 N   0  0  0  0  0  0  0  0  0  0  0  0
    2.5274    0.0065   -0.1253 C   0  0  0  0  0  0  0  0  0  0  0  0
    1.8024   -0.7488    0.7405 N   0  0  0  0  0  0  0  0  0  0  0  0
    0.4765   -0.8208    0.6364 N   0  0  0  0  0  0  0  0  0  0  0  0
   -0.1799   -0.1489   -0.3430 C   0  0  0  0  0  0  0  0  0  0  0  0
  1  2  4  0
  2  3  4  0
  3  4  4  0
  4  5  4  0
  5  6  4  0
  6  1  4  0
M  END
$$$$

     RDKit          3D

  6  6  0  0  0  0  0  0  0  0999 V2000
    0.6678    1.0984   -0.5845 N   0  0  0  0  0  0  0  0  0  0  0  0
    1.9408    0.7921   -0.8297 N   0  0  0  0  0  0  0  0  0  0  0  0
    2.4840   -0.3571   -0.3500 C   0  0  0  0  0  0  0  0  0  0  0  0
    1.6966   -1.1898    0.3797 N   0  0  0  0  0  0  0  0  0  0  0  0
    0.4237   -0.8834    0.6243 N   0  0  0  0  0  0  0  0  0  0  0  0
   -0.1134    0.2725    0.1583 C   0  0  0  0  0  0  0  0  0  0  0  0
  1  2  4  0
  2  3  4  0
  3  4  4  0
  4  5  4  0
  5  6  4  0
  6  1  4  0
M  END
$$$$

     RDKit          3D

  6  6  0  0  0  0  0  0  0  0999 V2000
    0.6678    1.0984   -0.5845 N   0  0  0  0  0  0  0  0  0  0  0  0
    1.9408    0.7921   -0.8297 N   0  0  0  0  0  0  0  0  0  0  0  0
    2.4840   -0.3571   -0.3500 C   0  0  0  0  0  0  0  0  0  0  0  0
    1.6966   -1.1898    0.3797 N   0  0  0  0  0  0  0  0  0  0  0  0
    0.4237   -0.8834    0.6243 N   0  0  0  0  0  0  0  0  0  0  0  0
   -0.1134    0.2725    0.1583 C   0  0  0  0  0  0  0  0  0  0  0  0
  1  2  4  0
  2  3  4  0
  3  4  4  0
  4  5  4  0
  5  6  4  0
  6  1  4  0
M  END
$$$$

     RDKit          3D

  6  6  0  0  0  0  0  0  0  0999 V2000
    0.4844   -0.1119   -1.1288 N   0  0  0  0  0  0  0  0  0  0  0  0
    1.7910    0.1429   -1.1762 N   0  0  0  0  0  0  0  0  0  0  0  0
    2.4889    0.4087   -0.0413 C   0  0  0  0  0  0  0  0  0  0  0  0
    1.8217    0.4154    1.1422 N   0  0  0  0  0  0  0  0  0  0  0  0
    0.5152    0.1610    1.1891 N   0  0  0  0  0  0  0  0  0  0  0  0
   -0.1778   -0.1204    0.0567 C   0  0  0  0  0  0  0  0  0  0  0  0
  1  2  4  0
  2  3  4  0
  3  4  4  0
  4  5  4  0
  5  6  4  0
  6  1  4  0
M  END
$$$$

     RDKit          3D

  6  6  0  0  0  0  0  0  0  0999 V2000
    0.4844   -0.1119   -1.1288 N   0  0  0  0  0  0  0  0  0  0  0  0
    1.7910    0.1429   -1.1762 N   0  0  0  0  0  0  0  0  0  0  0  0
    2.4889    0.4087   -0.0413 C   0  0  0  0  0  0  0  0  0  0  0  0
    1.8217    0.4154    1.1422 N   0  0  0  0  0  0  0  0  0  0  0  0
    0.5152    0.1610    1.1891 N   0  0  0  0  0  0  0  0  0  0  0  0
   -0.1778   -0.1204    0.0567 C   0  0  0  0  0  0  0  0  0  0  0  0
  1  2  4  0
  2  3  4  0
  3  4  4  0
  4  5  4  0
  5  6  4  0
  6  1  4  0
M  END
$$$$

     RDKit          3D

  6  6  0  0  0  0  0  0  0  0999 V2000
    0.3475    0.8435   -0.2686 N   0  0  0  0  0  0  0  0  0  0  0  0
    1.6663    0.9671   -0.4089 N   0  0  0  0  0  0  0  0  0  0  0  0
    2.5050   -0.0274   -0.0092 C   0  0  0  0  0  0  0  0  0  0  0  0
    1.9690   -1.1446    0.5480 N   0  0  0  0  0  0  0  0  0  0  0  0
    0.6501   -1.2690    0.6866 N   0  0  0  0  0  0  0  0  0  0  0  0
   -0.1869   -0.2842    0.2687 C   0  0  0  0  0  0  0  0  0  0  0  0
  1  2  4  0
  2  3  4  0
  3  4  4  0
  4  5  4  0
  5  6  4  0
  6  1  4  0
M  END
$$$$

     RDKit          3D

  6  6  0  0  0  0  0  0  0  0999 V2000
    0.3475    0.8435   -0.2686 N   0  0  0  0  0  0  0  0  0  0  0  0
    1.6663    0.9671   -0.4089 N   0  0  0  0  0  0  0  0  0  0  0  0
    2.5050   -0.0274   -0.0092 C   0  0  0  0  0  0  0  0  0  0  0  0
    1.9690   -1.1446    0.5480 N   0  0  0  0  0  0  0  0  0  0  0  0
    0.6501   -1.2690    0.6866 N   0  0  0  0  0  0  0  0  0  0  0  0
   -0.1869   -0.2842    0.2687 C   0  0  0  0  0  0  0  0  0  0  0  0
  1  2  4  0
  2  3  4  0
  3  4  4  0
  4  5  4  0
  5  6  4  0
  6  1  4  0
M  END
$$$$

     RDKit          3D

  6  6  0  0  0  0  0  0  0  0999 V2000
    0.4999    1.1428   -0.0331 N   0  0  0  0  0  0  0  0  0  0  0  0
    1.7928    1.1861   -0.3512 N   0  0  0  0  0  0  0  0  0  0  0  0
    2.4663    0.0521   -0.6762 C   0  0  0  0  0  0  0  0  0  0  0  0
    1.7884   -1.1254   -0.6785 N   0  0  0  0  0  0  0  0  0  0  0  0
    0.4966   -1.1696   -0.3570 N   0  0  0  0  0  0  0  0  0  0  0  0
   -0.1692   -0.0382   -0.0161 C   0  0  0  0  0  0  0  0  0  0  0  0
  1  2  4  0
  2  3  4  0
  3  4  4  0
  4  5  4  0
  5  6  4  0
  6  1  4  0
M  END
$$$$

     RDKit          3D

  6  6  0  0  0  0  0  0  0  0999 V2000
    0.4999    1.1428   -0.0331 N   0  0  0  0  0  0  0  0  0  0  0  0
    1.7928    1.1861   -0.3512 N   0  0  0  0  0  0  0  0  0  0  0  0
    2.4663    0.0521   -0.6762 C   0  0  0  0  0  0  0  0  0  0  0  0
    1.7884   -1.1254   -0.6785 N   0  0  0  0  0  0  0  0  0  0  0  0
    0.4966   -1.1696   -0.3570 N   0  0  0  0  0  0  0  0  0  0  0  0
   -0.1692   -0.0382   -0.0161 C   0  0  0  0  0  0  0  0  0  0  0  0
  1  2  4  0
  2  3  4  0
  3  4  4  0
  4  5  4  0
  5  6  4  0
  6  1  4  0
M  END
$$$$

     RDKit          3D

  6  6  0  0  0  0  0  0  0  0999 V2000
    0.3349   -0.9353   -0.9984 N   0  0  0  0  0  0  0  0  0  0  0  0
    1.6589   -1.0835   -0.9877 N   0  0  0  0  0  0  0  0  0  0  0  0
    2.4527   -0.1917   -0.3391 C   0  0  0  0  0  0  0  0  0  0  0  0
    1.8641    0.8507    0.3028 N   0  0  0  0  0  0  0  0  0  0  0  0
    0.5405    0.9974    0.2923 N   0  0  0  0  0  0  0  0  0  0  0  0
   -0.2510    0.1160   -0.3688 C   0  0  0  0  0  0  0  0  0  0  0  0
  1  2  4  0
  2  3  4  0
  3  4  4  0
  4  5  4  0
  5  6  4  0
  6  1  4  0
M  END
$$$$

     RDKit          3D

  6  6  0  0  0  0  0  0  0  0999 V2000
    0.3349   -0.9353   -0.9984 N   0  0  0  0  0  0  0  0  0  0  0  0
    1.6589   -1.0835   -0.9877 N   0  0  0  0  0  0  0  0  0  0  0  0
    2.4527   -0.1917   -0.3391 C   0  0  0  0  0  0  0  0  0  0  0  0
    1.8641    0.8507    0.3028 N   0  0  0  0  0  0  0  0  0  0  0  0
    0.5405    0.9974    0.2923 N   0  0  0  0  0  0  0  0  0  0  0  0
   -0.2510    0.1160   -0.3688 C   0  0  0  0  0  0  0  0  0  0  0  0
  1  2  4  0
  2  3  4  0
  3  4  4  0
  4  5  4  0
  5  6  4  0
  6  1  4  0
M  END
$$$$
