
     RDKit          3D

  4  3  0  0  0  0  0  0  0  0999 V2000
    0.0563   -1.6635   -0.5252 F   0  0  0  0  0  0  0  0  0  0  0  0
   -0.4267   -0.5025   -0.0097 C   0  0  0  0  0  0  0  0  0  0  0  0
    0.4222    0.4925    0.3062 C   0  0  0  0  0  0  0  0  0  0  0  0
   -0.0664    1.7152    0.6429 F   0  0  0  0  0  0  0  0  0  0  0  0
  1  2  1  0
  2  3  2  0
  3  4  1  0
M  END
$$$$

     RDKit          3D

  4  3  0  0  0  0  0  0  0  0999 V2000
    0.1524   -0.5869   -1.6826 F   0  0  0  0  0  0  0  0  0  0  0  0
    0.4795   -0.1022   -0.4556 C   0  0  0  0  0  0  0  0  0  0  0  0
   -0.4864    0.1013    0.4578 C   0  0  0  0  0  0  0  0  0  0  0  0
   -0.1547    0.3823    1.7453 F   0  0  0  0  0  0  0  0  0  0  0  0
  1  2  1  0
  2  3  2  0
  3  4  1  0
M  END
$$$$

     RDKit          3D

  4  3  0  0  0  0  0  0  0  0999 V2000
   -0.1814   -0.4979    1.5395 F   0  0  0  0  0  0  0  0  0  0  0  0
    0.3889   -0.1527    0.3550 C   0  0  0  0  0  0  0  0  0  0  0  0
   -0.3935    0.1519   -0.6956 C   0  0  0  0  0  0  0  0  0  0  0  0
    0.1539    0.2921   -1.9315 F   0  0  0  0  0  0  0  0  0  0  0  0
  1  2  1  0
  2  3  2  0
  3  4  1  0
M  END
$$$$

     RDKit          3D

  4  3  0  0  0  0  0  0  0  0999 V2000
   -0.2191    1.4517    1.0412 F   0  0  0  0  0  0  0  0  0  0  0  0
    0.3758    0.4493    0.3429 C   0  0  0  0  0  0  0  0  0  0  0  0
   -0.3766   -0.4453   -0.3239 C   0  0  0  0  0  0  0  0  0  0  0  0
    0.2183   -1.4479   -1.0219 F   0  0  0  0  0  0  0  0  0  0  0  0
  1  2  1  0
  2  3  2  0
  3  4  1  0
M  END
$$$$

     RDKit          3D

  4  3  0  0  0  0  0  0  0  0999 V2000
   -0.2028   -1.7300   -0.4776 F   0  0  0  0  0  0  0  0  0  0  0  0
    0.3817   -0.5316   -0.2149 C   0  0  0  0  0  0  0  0  0  0  0  0
   -0.3783    0.5304    0.1060 C   0  0  0  0  0  0  0  0  0  0  0  0
    0.2120    1.6633    0.5703 F   0  0  0  0  0  0  0  0  0  0  0  0
  1  2  1  0
  2  3  2  0
  3  4  1  0
M  END
$$$$

     RDKit          3D

  4  3  0  0  0  0  0  0  0  0999 V2000
    0.0783   -1.2085    1.4340 F   0  0  0  0  0  0  0  0  0  0  0  0
    0.4621   -0.2918    0.5071 C   0  0  0  0  0  0  0  0  0  0  0  0
   -0.4586    0.2969   -0.2766 C   0  0  0  0  0  0  0  0  0  0  0  0
   -0.0576    1.0487   -1.3356 F   0  0  0  0  0  0  0  0  0  0  0  0
  1  2  1  0
  2  3  2  0
  3  4  1  0
M  END
$$$$

     RDKit          3D

  4  3  0  0  0  0  0  0  0  0999 V2000
   -0.0229    1.6476    0.5605 F   0  0  0  0  0  0  0  0  0  0  0  0
    0.4372    0.4932    0.0108 C   0  0  0  0  0  0  0  0  0  0  0  0
   -0.4295   -0.4640   -0.3649 C   0  0  0  0  0  0  0  0  0  0  0  0
    0.0361   -1.6918   -0.7158 F   0  0  0  0  0  0  0  0  0  0  0  0
  1  2  1  0
  2  3  2  0
  3  4  1  0
M  END
$$$$

     RDKit          3D

  4  3  0  0  0  0  0  0  0  0999 V2000
    0.0799    0.0525   -2.0174 F   0  0  0  0  0  0  0  0  0  0  0  0
    0.4652    0.0599   -0.7143 C   0  0  0  0  0  0  0  0  0  0  0  0
   -0.4562   -0.0492    0.2592 C   0  0  0  0  0  0  0  0  0  0  0  0
   -0.0570   -0.2524    1.5425 F   0  0  0  0  0  0  0  0  0  0  0  0
  1  2  1  0
  2  3  2  0
  3  4  1  0
M  END
$$$$

     RDKit          3D

  4  3  0  0  0  0  0  0  0  0999 V2000
   -1.4013   -3.7668   -0.7250 F   0  0  0  0  0  0  0  0  0  0  0  0
   -0.7579   -2.5785   -0.5940 C   0  0  0  0  0  0  0  0  0  0  0  0
    0.5042   -2.4853   -1.0498 C   0  0  0  0  0  0  0  0  0  0  0  0
    1.0296   -3.5510   -1.7064 F   0  0  0  0  0  0  0  0  0  0  0  0
  1  2  1  0
  2  3  2  0
  3  4  1  0
M  END
$$$$

     RDKit          3D

  4  3  0  0  0  0  0  0  0  0999 V2000
    0.8778   -3.7842    0.7159 F   0  0  0  0  0  0  0  0  0  0  0  0
    0.3802   -2.5443    0.4744 C   0  0  0  0  0  0  0  0  0  0  0  0
   -0.9557   -2.3898    0.4467 C   0  0  0  0  0  0  0  0  0  0  0  0
   -1.7323   -3.4976    0.5601 F   0  0  0  0  0  0  0  0  0  0  0  0
  1  2  1  0
  2  3  2  0
  3  4  1  0
M  END
$$$$

     RDKit          3D

  4  3  0  0  0  0  0  0  0  0999 V2000
    0.0690    1.5964    0.8851 F   0  0  0  0  0  0  0  0  0  0  0  0
   -0.4218    0.4446    0.3563 C   0  0  0  0  0  0  0  0  0  0  0  0
    0.4220   -0.4714   -0.1489 C   0  0  0  0  0  0  0  0  0  0  0  0
   -0.0648   -1.5066   -0.8828 F   0  0  0  0  0  0  0  0  0  0  0  0
  1  2  1  0
  2  3  2  0
  3  4  1  0
M  END
$$$$

     RDKit          3D

  4  3  0  0  0  0  0  0  0  0999 V2000
    0.8292   -3.8518   -0.0207 F   0  0  0  0  0  0  0  0  0  0  0  0
    0.3397   -2.5860    0.0016 C   0  0  0  0  0  0  0  0  0  0  0  0
   -0.9819   -2.4085   -0.1728 C   0  0  0  0  0  0  0  0  0  0  0  0
   -1.7720   -3.5098   -0.2500 F   0  0  0  0  0  0  0  0  0  0  0  0
  1  2  1  0
  2  3  2  0
  3  4  1  0
M  END
$$$$

     RDKit          3D

  4  3  0  0  0  0  0  0  0  0999 V2000
    1.2463    3.0161   -2.1765 F   0  0  0  0  0  0  0  0  0  0  0  0
    0.6349    2.0810   -1.4056 C   0  0  0  0  0  0  0  0  0  0  0  0
   -0.7016    2.1399   -1.2686 C   0  0  0  0  0  0  0  0  0  0  0  0
   -1.3563    3.1958   -1.8161 F   0  0  0  0  0  0  0  0  0  0  0  0
  1  2  1  0
  2  3  2  0
  3  4  1  0
M  END
$$$$

     RDKit          3D

  4  3  0  0  0  0  0  0  0  0999 V2000
    1.0272   -3.0720   -2.2564 F   0  0  0  0  0  0  0  0  0  0  0  0
    0.4864   -2.1136   -1.4613 C   0  0  0  0  0  0  0  0  0  0  0  0
   -0.8274   -2.1860   -1.1834 C   0  0  0  0  0  0  0  0  0  0  0  0
   -1.5199   -3.2701   -1.6168 F   0  0  0  0  0  0  0  0  0  0  0  0
  1  2  1  0
  2  3  2  0
  3  4  1  0
M  END
$$$$

     RDKit          3D

  4  3  0  0  0  0  0  0  0  0999 V2000
    0.0040   -0.2496   -1.7778 F   0  0  0  0  0  0  0  0  0  0  0  0
    0.4404   -0.0416   -0.5081 C   0  0  0  0  0  0  0  0  0  0  0  0
   -0.4409    0.0430    0.5030 C   0  0  0  0  0  0  0  0  0  0  0  0
   -0.0047    0.2509    1.7727 F   0  0  0  0  0  0  0  0  0  0  0  0
  1  2  1  0
  2  3  2  0
  3  4  1  0
M  END
$$$$

     RDKit          3D

  4  3  0  0  0  0  0  0  0  0999 V2000
    0.0382   -1.7657   -0.3361 F   0  0  0  0  0  0  0  0  0  0  0  0
    0.4509   -0.4903   -0.1152 C   0  0  0  0  0  0  0  0  0  0  0  0
   -0.4514    0.4926    0.0460 C   0  0  0  0  0  0  0  0  0  0  0  0
   -0.0389    1.7681    0.2668 F   0  0  0  0  0  0  0  0  0  0  0  0
  1  2  1  0
  2  3  2  0
  3  4  1  0
M  END
$$$$

     RDKit          3D

  4  3  0  0  0  0  0  0  0  0999 V2000
   -0.0736    0.6607    1.6864 F   0  0  0  0  0  0  0  0  0  0  0  0
    0.4185    0.1757    0.5166 C   0  0  0  0  0  0  0  0  0  0  0  0
   -0.4204   -0.2107   -0.4598 C   0  0  0  0  0  0  0  0  0  0  0  0
    0.0716   -0.6956   -1.6297 F   0  0  0  0  0  0  0  0  0  0  0  0
  1  2  1  0
  2  3  2  0
  3  4  1  0
M  END
$$$$

     RDKit          3D

  6  6  0  0  0  0  0  0  0  0999 V2000
   -0.6834    0.6846    0.9303 N   0  0  0  0  0  0  0  0  0  0  0  0
    0.6476    0.7349    0.9214 N   0  0  0  0  0  0  0  0  0  0  0  0
    1.3648    0.0510   -0.0077 C   0  0  0  0  0  0  0  0  0  0  0  0
    0.6898   -0.6858   -0.9281 N   0  0  0  0  0  0  0  0  0  0  0  0
   -0.6412   -0.7367   -0.9200 N   0  0  0  0  0  0  0  0  0  0  0  0
   -1.3571   -0.0524    0.0096 C   0  0  0  0  0  0  0  0  0  0  0  0
  1  2  4  0
  2  3  4  0
  3  4  4  0
  4  5  4  0
  5  6  4  0
  6  1  4  0
M  END
$$$$

     RDKit          3D

  6  6  0  0  0  0  0  0  0  0999 V2000
   -0.6202   -0.7530    1.0005 N   0  0  0  0  0  0  0  0  0  0  0  0
    0.7084   -0.6591    1.0127 N   0  0  0  0  0  0  0  0  0  0  0  0
    1.3624    0.0951    0.0913 C   0  0  0  0  0  0  0  0  0  0  0  0
    0.6266    0.7514   -0.8432 N   0  0  0  0  0  0  0  0  0  0  0  0
   -0.7020    0.6581   -0.8562 N   0  0  0  0  0  0  0  0  0  0  0  0
   -1.3547   -0.0963    0.0656 C   0  0  0  0  0  0  0  0  0  0  0  0
  1  2  4  0
  2  3  4  0
  3  4  4  0
  4  5  4  0
  5  6  4  0
  6  1  4  0
M  END
$$$$

     RDKit          3D

  6  6  0  0  0  0  0  0  0  0999 V2000
    0.6299   -1.0932   -0.3951 N   0  0  0  0  0  0  0  0  0  0  0  0
   -0.6999   -1.0321   -0.4408 N   0  0  0  0  0  0  0  0  0  0  0  0
   -1.3634    0.0629    0.0131 C   0  0  0  0  0  0  0  0  0  0  0  0
   -0.6360    1.0945    0.5152 N   0  0  0  0  0  0  0  0  0  0  0  0
    0.6938    1.0343    0.5614 N   0  0  0  0  0  0  0  0  0  0  0  0
    1.3560   -0.0611    0.1072 C   0  0  0  0  0  0  0  0  0  0  0  0
  1  2  4  0
  2  3  4  0
  3  4  4  0
  4  5  4  0
  5  6  4  0
  6  1  4  0
M  END
$$$$

     RDKit          3D

  6  6  0  0  0  0  0  0  0  0999 V2000
    0.7674    0.5164    1.0057 N   0  0  0  0  0  0  0  0  0  0  0  0
   -0.5588    0.5638    1.1198 N   0  0  0  0  0  0  0  0  0  0  0  0
   -1.3605    0.0442    0.1540 C   0  0  0  0  0  0  0  0  0  0  0  0
   -0.7750   -0.5253   -0.9315 N   0  0  0  0  0  0  0  0  0  0  0  0
    0.5511   -0.5732   -1.0464 N   0  0  0  0  0  0  0  0  0  0  0  0
    1.3515   -0.0533   -0.0801 C   0  0  0  0  0  0  0  0  0  0  0  0
  1  2  4  0
  2  3  4  0
  3  4  4  0
  4  5  4  0
  5  6  4  0
  6  1  4  0
M  END
$$$$

     RDKit          3D

  6  6  0  0  0  0  0  0  0  0999 V2000
   -0.5669   -0.3035    1.3684 N   0  0  0  0  0  0  0  0  0  0  0  0
    0.7608   -0.2780    1.2645 N   0  0  0  0  0  0  0  0  0  0  0  0
    1.3620    0.0254    0.0848 C   0  0  0  0  0  0  0  0  0  0  0  0
    0.5744    0.3022   -0.9870 N   0  0  0  0  0  0  0  0  0  0  0  0
   -0.7533    0.2768   -0.8841 N   0  0  0  0  0  0  0  0  0  0  0  0
   -1.3532   -0.0266    0.2961 C   0  0  0  0  0  0  0  0  0  0  0  0
  1  2  4  0
  2  3  4  0
  3  4  4  0
  4  5  4  0
  5  6  4  0
  6  1  4  0
M  END
$$$$

     RDKit          3D

  6  6  0  0  0  0  0  0  0  0999 V2000
   -0.6565    0.2131    1.1429 N   0  0  0  0  0  0  0  0  0  0  0  0
    0.6754    0.2115    1.1354 N   0  0  0  0  0  0  0  0  0  0  0  0
    1.3657   -0.0041   -0.0146 C   0  0  0  0  0  0  0  0  0  0  0  0
    0.6627   -0.2183   -1.1572 N   0  0  0  0  0  0  0  0  0  0  0  0
   -0.6692   -0.2171   -1.1505 N   0  0  0  0  0  0  0  0  0  0  0  0
   -1.3582   -0.0011   -0.0001 C   0  0  0  0  0  0  0  0  0  0  0  0
  1  2  4  0
  2  3  4  0
  3  4  4  0
  4  5  4  0
  5  6  4  0
  6  1  4  0
M  END
$$$$
