
     RDKit          3D

  3  2  0  0  0  0  0  0  0  0999 V2000
    1.0849   -3.4948   -0.6729 N   0  0  0  0  0  0  0  0  0  0  0  0
    0.5396   -2.1977   -0.4034 C   0  0  0  0  0  0  0  0  0  0  0  0
   -0.7988   -2.0496   -0.3509 C   0  0  0  0  0  0  0  0  0  0  0  0
  1  2  1  0
  2  3  2  0
M  END
$$$$

     RDKit          3D

  3  2  0  0  0  0  0  0  0  0999 V2000
    1.2821   -3.4852    0.2837 N   0  0  0  0  0  0  0  0  0  0  0  0
    0.6616   -2.1957    0.2175 C   0  0  0  0  0  0  0  0  0  0  0  0
   -0.6835   -2.1163    0.2325 C   0  0  0  0  0  0  0  0  0  0  0  0
  1  2  1  0
  2  3  2  0
M  END
$$$$

     RDKit          3D

  3  2  0  0  0  0  0  0  0  0999 V2000
   -1.1729   -2.6370   -2.4099 N   0  0  0  0  0  0  0  0  0  0  0  0
   -0.5170   -1.7069   -1.5401 C   0  0  0  0  0  0  0  0  0  0  0  0
    0.7956   -1.4595   -1.7179 C   0  0  0  0  0  0  0  0  0  0  0  0
  1  2  1  0
  2  3  2  0
M  END
$$$$

     RDKit          3D

  3  2  0  0  0  0  0  0  0  0999 V2000
   -1.0040   -0.9927    3.7162 N   0  0  0  0  0  0  0  0  0  0  0  0
   -0.4084   -0.6465    2.4604 C   0  0  0  0  0  0  0  0  0  0  0  0
    0.8954   -0.3078    2.4265 C   0  0  0  0  0  0  0  0  0  0  0  0
  1  2  1  0
  2  3  2  0
M  END
$$$$

     RDKit          3D

  3  2  0  0  0  0  0  0  0  0999 V2000
    0.3601   -0.4628   -1.8688 N   0  0  0  0  0  0  0  0  0  0  0  0
    0.6464   -0.0634   -0.5193 C   0  0  0  0  0  0  0  0  0  0  0  0
   -0.3456    0.2086    0.3520 C   0  0  0  0  0  0  0  0  0  0  0  0
  1  2  1  0
  2  3  2  0
M  END
$$$$

     RDKit          3D

  3  2  0  0  0  0  0  0  0  0999 V2000
    0.2360    1.9559   -0.1104 N   0  0  0  0  0  0  0  0  0  0  0  0
    0.6093    0.5694   -0.0826 C   0  0  0  0  0  0  0  0  0  0  0  0
   -0.3230   -0.4019   -0.0138 C   0  0  0  0  0  0  0  0  0  0  0  0
  1  2  1  0
  2  3  2  0
M  END
$$$$

     RDKit          3D

  3  2  0  0  0  0  0  0  0  0999 V2000
   -0.0447    0.2918   -1.9510 N   0  0  0  0  0  0  0  0  0  0  0  0
   -0.5298   -0.0621   -0.6463 C   0  0  0  0  0  0  0  0  0  0  0  0
    0.2844   -0.0449    0.4280 C   0  0  0  0  0  0  0  0  0  0  0  0
  1  2  1  0
  2  3  2  0
M  END
$$$$

     RDKit          3D

  3  2  0  0  0  0  0  0  0  0999 V2000
   -0.0928    1.7165    0.8587 N   0  0  0  0  0  0  0  0  0  0  0  0
   -0.5597    0.5854    0.1068 C   0  0  0  0  0  0  0  0  0  0  0  0
    0.2962   -0.3554   -0.3400 C   0  0  0  0  0  0  0  0  0  0  0  0
  1  2  1  0
  2  3  2  0
M  END
$$$$

     RDKit          3D

  3  2  0  0  0  0  0  0  0  0999 V2000
    0.2470    1.7785    0.9390 N   0  0  0  0  0  0  0  0  0  0  0  0
    0.6098    0.5500    0.2894 C   0  0  0  0  0  0  0  0  0  0  0  0
   -0.3271   -0.3467   -0.0783 C   0  0  0  0  0  0  0  0  0  0  0  0
  1  2  1  0
  2  3  2  0
M  END
$$$$

     RDKit          3D

  3  2  0  0  0  0  0  0  0  0999 V2000
    0.1788    1.3417   -1.1931 N   0  0  0  0  0  0  0  0  0  0  0  0
    0.5692    0.2298   -0.3715 C   0  0  0  0  0  0  0  0  0  0  0  0
   -0.3527   -0.5820    0.1829 C   0  0  0  0  0  0  0  0  0  0  0  0
  1  2  1  0
  2  3  2  0
M  END
$$$$

     RDKit          3D

  3  2  0  0  0  0  0  0  0  0999 V2000
   -0.0496    1.6226   -0.6505 N   0  0  0  0  0  0  0  0  0  0  0  0
    0.5239    0.4045   -0.1496 C   0  0  0  0  0  0  0  0  0  0  0  0
   -0.2467   -0.6694    0.1136 C   0  0  0  0  0  0  0  0  0  0  0  0
  1  2  1  0
  2  3  2  0
M  END
$$$$

     RDKit          3D

  3  2  0  0  0  0  0  0  0  0999 V2000
    0.0085    1.7839    0.2691 N   0  0  0  0  0  0  0  0  0  0  0  0
    0.5304    0.4457    0.2905 C   0  0  0  0  0  0  0  0  0  0  0  0
   -0.2923   -0.6202    0.3484 C   0  0  0  0  0  0  0  0  0  0  0  0
  1  2  1  0
  2  3  2  0
M  END
$$$$

     RDKit          3D

  6  6  0  0  0  0  0  0  0  0999 V2000
    0.7821   -1.0506    0.0604 N   0  0  0  0  0  0  0  0  0  0  0  0
   -0.5431   -1.1850    0.0616 N   0  0  0  0  0  0  0  0  0  0  0  0
   -1.3526   -0.1189   -0.1725 C   0  0  0  0  0  0  0  0  0  0  0  0
   -0.7751    1.0879   -0.4078 N   0  0  0  0  0  0  0  0  0  0  0  0
    0.5499    1.2233   -0.4093 N   0  0  0  0  0  0  0  0  0  0  0  0
    1.3577    0.1568   -0.1751 C   0  0  0  0  0  0  0  0  0  0  0  0
  1  2  4  0
  2  3  4  0
  3  4  4  0
  4  5  4  0
  5  6  4  0
  6  1  4  0
M  END
$$$$

     RDKit          3D

  6  6  0  0  0  0  0  0  0  0999 V2000
   -0.6555   -0.6806    0.9344 N   0  0  0  0  0  0  0  0  0  0  0  0
    0.6755   -0.7073    0.8910 N   0  0  0  0  0  0  0  0  0  0  0  0
    1.3564   -0.0154   -0.0600 C   0  0  0  0  0  0  0  0  0  0  0  0
    0.6442    0.7045   -0.9654 N   0  0  0  0  0  0  0  0  0  0  0  0
   -0.6868    0.7319   -0.9227 N   0  0  0  0  0  0  0  0  0  0  0  0
   -1.3658    0.0398    0.0283 C   0  0  0  0  0  0  0  0  0  0  0  0
  1  2  4  0
  2  3  4  0
  3  4  4  0
  4  5  4  0
  5  6  4  0
  6  1  4  0
M  END
$$$$

     RDKit          3D

  6  6  0  0  0  0  0  0  0  0999 V2000
   -0.7158   -0.7397    0.9660 N   0  0  0  0  0  0  0  0  0  0  0  0
    0.6148   -0.7974    0.9830 N   0  0  0  0  0  0  0  0  0  0  0  0
    1.3556   -0.0664    0.1100 C   0  0  0  0  0  0  0  0  0  0  0  0
    0.7039    0.7256   -0.7815 N   0  0  0  0  0  0  0  0  0  0  0  0
   -0.6267    0.7838   -0.7991 N   0  0  0  0  0  0  0  0  0  0  0  0
   -1.3658    0.0523    0.0745 C   0  0  0  0  0  0  0  0  0  0  0  0
  1  2  4  0
  2  3  4  0
  3  4  4  0
  4  5  4  0
  5  6  4  0
  6  1  4  0
M  END
$$$$

     RDKit          3D

  6  6  0  0  0  0  0  0  0  0999 V2000
   -0.6672    0.4568   -0.9969 N   0  0  0  0  0  0  0  0  0  0  0  0
    0.6646    0.4420   -0.9974 N   0  0  0  0  0  0  0  0  0  0  0  0
    1.3574   -0.0103    0.0799 C   0  0  0  0  0  0  0  0  0  0  0  0
    0.6562   -0.4474    1.1589 N   0  0  0  0  0  0  0  0  0  0  0  0
   -0.6756   -0.4328    1.1603 N   0  0  0  0  0  0  0  0  0  0  0  0
   -1.3666    0.0197    0.0821 C   0  0  0  0  0  0  0  0  0  0  0  0
  1  2  4  0
  2  3  4  0
  3  4  4  0
  4  5  4  0
  5  6  4  0
  6  1  4  0
M  END
$$$$

     RDKit          3D

  6  6  0  0  0  0  0  0  0  0999 V2000
   -0.8000   -0.3306    1.0854 N   0  0  0  0  0  0  0  0  0  0  0  0
    0.5231   -0.4063    1.2189 N   0  0  0  0  0  0  0  0  0  0  0  0
    1.3476   -0.0808    0.1896 C   0  0  0  0  0  0  0  0  0  0  0  0
    0.7874    0.3243   -0.9804 N   0  0  0  0  0  0  0  0  0  0  0  0
   -0.5356    0.4003   -1.1147 N   0  0  0  0  0  0  0  0  0  0  0  0
   -1.3584    0.0744   -0.0845 C   0  0  0  0  0  0  0  0  0  0  0  0
  1  2  4  0
  2  3  4  0
  3  4  4  0
  4  5  4  0
  5  6  4  0
  6  1  4  0
M  END
$$$$

     RDKit          3D

  6  6  0  0  0  0  0  0  0  0999 V2000
   -0.6597   -1.0058    0.7216 N   0  0  0  0  0  0  0  0  0  0  0  0
    0.6666   -1.0534    0.6087 N   0  0  0  0  0  0  0  0  0  0  0  0
    1.3519   -0.0462    0.0064 C   0  0  0  0  0  0  0  0  0  0  0  0
    0.6492    1.0107   -0.4776 N   0  0  0  0  0  0  0  0  0  0  0  0
   -0.6772    1.0591   -0.3651 N   0  0  0  0  0  0  0  0  0  0  0  0
   -1.3607    0.0518    0.2370 C   0  0  0  0  0  0  0  0  0  0  0  0
  1  2  4  0
  2  3  4  0
  3  4  4  0
  4  5  4  0
  5  6  4  0
  6  1  4  0
M  END
$$$$

     RDKit          3D

  6  6  0  0  0  0  0  0  0  0999 V2000
    0.6427    1.1497    0.3072 N   0  0  0  0  0  0  0  0  0  0  0  0
   -0.6888    1.1164    0.3037 N   0  0  0  0  0  0  0  0  0  0  0  0
   -1.3568   -0.0538    0.1268 C   0  0  0  0  0  0  0  0  0  0  0  0
   -0.6312   -1.1890   -0.0463 N   0  0  0  0  0  0  0  0  0  0  0  0
    0.7004   -1.1566   -0.0430 N   0  0  0  0  0  0  0  0  0  0  0  0
    1.3666    0.0137    0.1339 C   0  0  0  0  0  0  0  0  0  0  0  0
  1  2  4  0
  2  3  4  0
  3  4  4  0
  4  5  4  0
  5  6  4  0
  6  1  4  0
M  END
$$$$
