
     RDKit          3D

  6  6  0  0  0  0  0  0  0  0999 V2000
   -1.1535   -1.3134    0.8390 N   0  0  0  0  0  0  0  0  0  0  0  0
    0.1218   -1.6853    0.7411 N   0  0  0  0  0  0  0  0  0  0  0  0
    0.9486   -1.0878   -0.1538 C   0  0  0  0  0  0  0  0  0  0  0  0
    0.4422   -0.1308   -0.9697 N   0  0  0  0  0  0  0  0  0  0  0  0
   -0.8339    0.2378   -0.8737 N   0  0  0  0  0  0  0  0  0  0  0  0
   -1.6552   -0.3340    0.0417 C   0  0  0  0  0  0  0  0  0  0  0  0
  1  2  4  0
  2  3  4  0
  3  4  4  0
  4  5  4  0
  5  6  4  0
  6  1  4  0
M  END
$$$$

     RDKit          3D

  6  6  0  0  0  0  0  0  0  0999 V2000
    1.1077    0.4082    1.3357 N   0  0  0  0  0  0  0  0  0  0  0  0
   -0.1496    0.2695    1.7536 N   0  0  0  0  0  0  0  0  0  0  0  0
   -1.0199   -0.5187    1.0730 C   0  0  0  0  0  0  0  0  0  0  0  0
   -0.5747   -1.1919   -0.0167 N   0  0  0  0  0  0  0  0  0  0  0  0
    0.6829   -1.0553   -0.4318 N   0  0  0  0  0  0  0  0  0  0  0  0
    1.5451   -0.2379    0.2232 C   0  0  0  0  0  0  0  0  0  0  0  0
  1  2  4  0
  2  3  4  0
  3  4  4  0
  4  5  4  0
  5  6  4  0
  6  1  4  0
M  END
$$$$

     RDKit          3D

  6  6  0  0  0  0  0  0  0  0999 V2000
    0.5939   -0.4780    1.1508 N   0  0  0  0  0  0  0  0  0  0  0  0
   -0.6513   -0.0227    1.2732 N   0  0  0  0  0  0  0  0  0  0  0  0
   -1.0636    1.0619    0.5704 C   0  0  0  0  0  0  0  0  0  0  0  0
   -0.1713    1.6971   -0.2315 N   0  0  0  0  0  0  0  0  0  0  0  0
    1.0741    1.2405   -0.3547 N   0  0  0  0  0  0  0  0  0  0  0  0
    1.4764    0.1323    0.3205 C   0  0  0  0  0  0  0  0  0  0  0  0
  1  2  4  0
  2  3  4  0
  3  4  4  0
  4  5  4  0
  5  6  4  0
  6  1  4  0
M  END
$$$$

     RDKit          3D

  6  6  0  0  0  0  0  0  0  0999 V2000
   -0.7713    1.3942    1.0275 N   0  0  0  0  0  0  0  0  0  0  0  0
    0.5548    1.3493    1.1457 N   0  0  0  0  0  0  0  0  0  0  0  0
    1.2286    0.1916    0.9253 C   0  0  0  0  0  0  0  0  0  0  0  0
    0.5230   -0.9295    0.6322 N   0  0  0  0  0  0  0  0  0  0  0  0
   -0.8026   -0.8837    0.5135 N   0  0  0  0  0  0  0  0  0  0  0  0
   -1.4745    0.2825    0.6890 C   0  0  0  0  0  0  0  0  0  0  0  0
  1  2  4  0
  2  3  4  0
  3  4  4  0
  4  5  4  0
  5  6  4  0
  6  1  4  0
M  END
$$$$

     RDKit          3D

  6  6  0  0  0  0  0  0  0  0999 V2000
   -1.0243    0.9244   -0.8698 N   0  0  0  0  0  0  0  0  0  0  0  0
    0.2799    1.0406   -1.1161 N   0  0  0  0  0  0  0  0  0  0  0  0
    1.1062   -0.0289   -0.9843 C   0  0  0  0  0  0  0  0  0  0  0  0
    0.5706   -1.2262   -0.6381 N   0  0  0  0  0  0  0  0  0  0  0  0
   -0.7329   -1.3423   -0.3927 N   0  0  0  0  0  0  0  0  0  0  0  0
   -1.5529   -0.2658   -0.4840 C   0  0  0  0  0  0  0  0  0  0  0  0
  1  2  4  0
  2  3  4  0
  3  4  4  0
  4  5  4  0
  5  6  4  0
  6  1  4  0
M  END
$$$$

     RDKit          3D

  6  6  0  0  0  0  0  0  0  0999 V2000
   -0.7244    1.8864    0.7076 N   0  0  0  0  0  0  0  0  0  0  0  0
    0.5804    1.9632    0.4521 N   0  0  0  0  0  0  0  0  0  0  0  0
    1.1727    1.0741   -0.3846 C   0  0  0  0  0  0  0  0  0  0  0  0
    0.4070    0.1233   -0.9791 N   0  0  0  0  0  0  0  0  0  0  0  0
   -0.9001    0.0507   -0.7277 N   0  0  0  0  0  0  0  0  0  0  0  0
   -1.4924    0.9360    0.1147 C   0  0  0  0  0  0  0  0  0  0  0  0
  1  2  4  0
  2  3  4  0
  3  4  4  0
  4  5  4  0
  5  6  4  0
  6  1  4  0
M  END
$$$$

     RDKit          3D

  6  6  0  0  0  0  0  0  0  0999 V2000
    1.0721    1.4532    0.7791 N   0  0  0  0  0  0  0  0  0  0  0  0
   -0.2449    1.6498    0.8134 N   0  0  0  0  0  0  0  0  0  0  0  0
   -1.0601    1.0298   -0.0781 C   0  0  0  0  0  0  0  0  0  0  0  0
   -0.5048    0.2227   -1.0170 N   0  0  0  0  0  0  0  0  0  0  0  0
    0.8121    0.0280   -1.0519 N   0  0  0  0  0  0  0  0  0  0  0  0
    1.6290    0.6454   -0.1592 C   0  0  0  0  0  0  0  0  0  0  0  0
  1  2  4  0
  2  3  4  0
  3  4  4  0
  4  5  4  0
  5  6  4  0
  6  1  4  0
M  END
$$$$

     RDKit          3D

  6  6  0  0  0  0  0  0  0  0999 V2000
   -0.9150   -1.2056   -1.4024 N   0  0  0  0  0  0  0  0  0  0  0  0
    0.3623   -1.5294   -1.2090 N   0  0  0  0  0  0  0  0  0  0  0  0
    1.0409   -1.0541   -0.1336 C   0  0  0  0  0  0  0  0  0  0  0  0
    0.3863   -0.2610    0.7522 N   0  0  0  0  0  0  0  0  0  0  0  0
   -0.8906    0.0639    0.5579 N   0  0  0  0  0  0  0  0  0  0  0  0
   -1.5686   -0.4102   -0.5185 C   0  0  0  0  0  0  0  0  0  0  0  0
  1  2  4  0
  2  3  4  0
  3  4  4  0
  4  5  4  0
  5  6  4  0
  6  1  4  0
M  END
$$$$

     RDKit          3D

  6  6  0  0  0  0  0  0  0  0999 V2000
   -0.6403    1.4968   -1.2414 N   0  0  0  0  0  0  0  0  0  0  0  0
    0.6606    1.6717   -1.0160 N   0  0  0  0  0  0  0  0  0  0  0  0
    1.2296    1.2112    0.1261 C   0  0  0  0  0  0  0  0  0  0  0  0
    0.4486    0.5863    1.0444 N   0  0  0  0  0  0  0  0  0  0  0  0
   -0.8543    0.4192    0.8216 N   0  0  0  0  0  0  0  0  0  0  0  0
   -1.4252    0.8773   -0.3221 C   0  0  0  0  0  0  0  0  0  0  0  0
  1  2  4  0
  2  3  4  0
  3  4  4  0
  4  5  4  0
  5  6  4  0
  6  1  4  0
M  END
$$$$

     RDKit          3D

  6  6  0  0  0  0  0  0  0  0999 V2000
   -0.9949   -0.6661   -1.1954 N   0  0  0  0  0  0  0  0  0  0  0  0
    0.3045   -0.8202   -1.4447 N   0  0  0  0  0  0  0  0  0  0  0  0
    1.2223   -0.6411   -0.4610 C   0  0  0  0  0  0  0  0  0  0  0  0
    0.7891   -0.3422    0.7894 N   0  0  0  0  0  0  0  0  0  0  0  0
   -0.5102   -0.1880    1.0377 N   0  0  0  0  0  0  0  0  0  0  0  0
   -1.4279   -0.3299    0.0477 C   0  0  0  0  0  0  0  0  0  0  0  0
  1  2  4  0
  2  3  4  0
  3  4  4  0
  4  5  4  0
  5  6  4  0
  6  1  4  0
M  END
$$$$

     RDKit          3D

  6  6  0  0  0  0  0  0  0  0999 V2000
   -1.0054    0.7244    0.3807 N   0  0  0  0  0  0  0  0  0  0  0  0
    0.2716    1.0980    0.4428 N   0  0  0  0  0  0  0  0  0  0  0  0
    1.1273    0.7984   -0.5669 C   0  0  0  0  0  0  0  0  0  0  0  0
    0.6526    0.1414   -1.6551 N   0  0  0  0  0  0  0  0  0  0  0  0
   -0.6248   -0.2312   -1.7167 N   0  0  0  0  0  0  0  0  0  0  0  0
   -1.4801    0.0580   -0.7033 C   0  0  0  0  0  0  0  0  0  0  0  0
  1  2  4  0
  2  3  4  0
  3  4  4  0
  4  5  4  0
  5  6  4  0
  6  1  4  0
M  END
$$$$

     RDKit          3D

  6  6  0  0  0  0  0  0  0  0999 V2000
   -0.7012   -0.9056   -0.0666 N   0  0  0  0  0  0  0  0  0  0  0  0
    0.6222   -0.8313   -0.1977 N   0  0  0  0  0  0  0  0  0  0  0  0
    1.2164    0.3370   -0.5473 C   0  0  0  0  0  0  0  0  0  0  0  0
    0.4362    1.4210   -0.7873 N   0  0  0  0  0  0  0  0  0  0  0  0
   -0.8869    1.3457   -0.6548 N   0  0  0  0  0  0  0  0  0  0  0  0
   -1.4847    0.1804   -0.2979 C   0  0  0  0  0  0  0  0  0  0  0  0
  1  2  4  0
  2  3  4  0
  3  4  4  0
  4  5  4  0
  5  6  4  0
  6  1  4  0
M  END
$$$$

     RDKit          3D

  6  6  0  0  0  0  0  0  0  0999 V2000
   -1.1732   -0.0671    1.4965 N   0  0  0  0  0  0  0  0  0  0  0  0
    0.1164   -0.1415    1.8210 N   0  0  0  0  0  0  0  0  0  0  0  0
    1.0276   -0.6017    0.9238 C   0  0  0  0  0  0  0  0  0  0  0  0
    0.5914   -1.0534   -0.2786 N   0  0  0  0  0  0  0  0  0  0  0  0
   -0.6974   -0.9770   -0.6027 N   0  0  0  0  0  0  0  0  0  0  0  0
   -1.5995   -0.4535    0.2650 C   0  0  0  0  0  0  0  0  0  0  0  0
  1  2  4  0
  2  3  4  0
  3  4  4  0
  4  5  4  0
  5  6  4  0
  6  1  4  0
M  END
$$$$

     RDKit          3D

  6  6  0  0  0  0  0  0  0  0999 V2000
    1.1850    0.7269    0.5966 N   0  0  0  0  0  0  0  0  0  0  0  0
   -0.0720    1.0121    0.9330 N   0  0  0  0  0  0  0  0  0  0  0  0
   -1.0009    1.2633   -0.0236 C   0  0  0  0  0  0  0  0  0  0  0  0
   -0.6180    1.2634   -1.3259 N   0  0  0  0  0  0  0  0  0  0  0  0
    0.6392    0.9787   -1.6616 N   0  0  0  0  0  0  0  0  0  0  0  0
    1.5590    0.6835   -0.7081 C   0  0  0  0  0  0  0  0  0  0  0  0
  1  2  4  0
  2  3  4  0
  3  4  4  0
  4  5  4  0
  5  6  4  0
  6  1  4  0
M  END
$$$$

     RDKit          3D

  6  6  0  0  0  0  0  0  0  0999 V2000
   -1.0359   -0.1228    1.7062 N   0  0  0  0  0  0  0  0  0  0  0  0
    0.2852   -0.2069    1.8538 N   0  0  0  0  0  0  0  0  0  0  0  0
    1.0669   -0.6685    0.8435 C   0  0  0  0  0  0  0  0  0  0  0  0
    0.4735   -1.0579   -0.3137 N   0  0  0  0  0  0  0  0  0  0  0  0
   -0.8475   -0.9740   -0.4614 N   0  0  0  0  0  0  0  0  0  0  0  0
   -1.6282   -0.5170    0.5507 C   0  0  0  0  0  0  0  0  0  0  0  0
  1  2  4  0
  2  3  4  0
  3  4  4  0
  4  5  4  0
  5  6  4  0
  6  1  4  0
M  END
$$$$

     RDKit          3D

  6  6  0  0  0  0  0  0  0  0999 V2000
   -0.6818    1.8404   -0.2363 N   0  0  0  0  0  0  0  0  0  0  0  0
    0.6075    1.9046    0.0928 N   0  0  0  0  0  0  0  0  0  0  0  0
    1.2693    0.7954    0.5104 C   0  0  0  0  0  0  0  0  0  0  0  0
    0.5835   -0.3691    0.6289 N   0  0  0  0  0  0  0  0  0  0  0  0
   -0.7046   -0.4330    0.2971 N   0  0  0  0  0  0  0  0  0  0  0  0
   -1.3588    0.6656   -0.1576 C   0  0  0  0  0  0  0  0  0  0  0  0
  1  2  4  0
  2  3  4  0
  3  4  4  0
  4  5  4  0
  5  6  4  0
  6  1  4  0
M  END
$$$$

     RDKit          3D

  6  6  0  0  0  0  0  0  0  0999 V2000
    1.2275    0.1538   -1.5923 N   0  0  0  0  0  0  0  0  0  0  0  0
   -0.0752    0.2379   -1.8577 N   0  0  0  0  0  0  0  0  0  0  0  0
   -0.9948   -0.1308   -0.9297 C   0  0  0  0  0  0  0  0  0  0  0  0
   -0.5622   -0.6043    0.2646 N   0  0  0  0  0  0  0  0  0  0  0  0
    0.7401   -0.6866    0.5315 N   0  0  0  0  0  0  0  0  0  0  0  0
    1.6604   -0.3192   -0.3964 C   0  0  0  0  0  0  0  0  0  0  0  0
  1  2  4  0
  2  3  4  0
  3  4  4  0
  4  5  4  0
  5  6  4  0
  6  1  4  0
M  END
$$$$

     RDKit          3D

  6  6  0  0  0  0  0  0  0  0999 V2000
    0.7680   -1.8751   -0.0366 N   0  0  0  0  0  0  0  0  0  0  0  0
   -0.5444   -1.9073    0.1857 N   0  0  0  0  0  0  0  0  0  0  0  0
   -1.1970   -0.8058    0.6355 C   0  0  0  0  0  0  0  0  0  0  0  0
   -0.4835    0.3239    0.8729 N   0  0  0  0  0  0  0  0  0  0  0  0
    0.8302    0.3563    0.6507 N   0  0  0  0  0  0  0  0  0  0  0  0
    1.4824   -0.7476    0.2040 C   0  0  0  0  0  0  0  0  0  0  0  0
  1  2  4  0
  2  3  4  0
  3  4  4  0
  4  5  4  0
  5  6  4  0
  6  1  4  0
M  END
$$$$

     RDKit          3D

  6  6  0  0  0  0  0  0  0  0999 V2000
   -0.8392    1.0124   -1.0297 N   0  0  0  0  0  0  0  0  0  0  0  0
    0.4906    1.0862   -1.0123 N   0  0  0  0  0  0  0  0  0  0  0  0
    1.2465   -0.0411   -1.0092 C   0  0  0  0  0  0  0  0  0  0  0  0
    0.6197   -1.2455   -1.0406 N   0  0  0  0  0  0  0  0  0  0  0  0
   -0.7101   -1.3183   -1.0561 N   0  0  0  0  0  0  0  0  0  0  0  0
   -1.4660   -0.1923   -1.0637 C   0  0  0  0  0  0  0  0  0  0  0  0
  1  2  4  0
  2  3  4  0
  3  4  4  0
  4  5  4  0
  5  6  4  0
  6  1  4  0
M  END
$$$$

     RDKit          3D

  6  6  0  0  0  0  0  0  0  0999 V2000
    0.4527   -1.4224    0.5684 N   0  0  0  0  0  0  0  0  0  0  0  0
   -0.8557   -1.2256    0.7162 N   0  0  0  0  0  0  0  0  0  0  0  0
   -1.3467    0.0191    0.9356 C   0  0  0  0  0  0  0  0  0  0  0  0
   -0.4759    1.0571    1.0462 N   0  0  0  0  0  0  0  0  0  0  0  0
    0.8339    0.8605    0.8976 N   0  0  0  0  0  0  0  0  0  0  0  0
    1.3206   -0.3805    0.6334 C   0  0  0  0  0  0  0  0  0  0  0  0
  1  2  4  0
  2  3  4  0
  3  4  4  0
  4  5  4  0
  5  6  4  0
  6  1  4  0
M  END
$$$$

     RDKit          3D

  6  6  0  0  0  0  0  0  0  0999 V2000
    1.4111   -0.0837   -0.0808 C   0  0  0  0  0  0  0  0  0  0  0  0
    0.7175    0.5050   -1.1523 C   0  0  0  0  0  0  0  0  0  0  0  0
   -0.6770    0.5945   -1.1330 C   0  0  0  0  0  0  0  0  0  0  0  0
   -1.4103    0.0975   -0.0416 C   0  0  0  0  0  0  0  0  0  0  0  0
   -0.7167   -0.4911    1.0300 C   0  0  0  0  0  0  0  0  0  0  0  0
    0.6778   -0.5807    1.0106 C   0  0  0  0  0  0  0  0  0  0  0  0
  1  2  4  0
  2  3  4  0
  3  4  4  0
  4  5  4  0
  5  6  4  0
  6  1  4  0
M  END
$$$$

     RDKit          3D

  6  6  0  0  0  0  0  0  0  0999 V2000
   -1.4121    0.0573    0.0496 C   0  0  0  0  0  0  0  0  0  0  0  0
   -0.7273   -0.3904   -1.0934 C   0  0  0  0  0  0  0  0  0  0  0  0
    0.6687   -0.3529   -1.1457 C   0  0  0  0  0  0  0  0  0  0  0  0
    1.4122    0.1332   -0.0564 C   0  0  0  0  0  0  0  0  0  0  0  0
    0.7274    0.5809    1.0866 C   0  0  0  0  0  0  0  0  0  0  0  0
   -0.6686    0.5433    1.1389 C   0  0  0  0  0  0  0  0  0  0  0  0
  1  2  4  0
  2  3  4  0
  3  4  4  0
  4  5  4  0
  5  6  4  0
  6  1  4  0
M  END
$$$$

     RDKit          3D

  6  6  0  0  0  0  0  0  0  0999 V2000
    1.4110   -0.0507    0.1141 C   0  0  0  0  0  0  0  0  0  0  0  0
    0.7189   -0.8364   -0.8237 C   0  0  0  0  0  0  0  0  0  0  0  0
   -0.6762   -0.7936   -0.8953 C   0  0  0  0  0  0  0  0  0  0  0  0
   -1.4114    0.0358   -0.0309 C   0  0  0  0  0  0  0  0  0  0  0  0
   -0.7192    0.8215    0.9069 C   0  0  0  0  0  0  0  0  0  0  0  0
    0.6758    0.7787    0.9785 C   0  0  0  0  0  0  0  0  0  0  0  0
  1  2  4  0
  2  3  4  0
  3  4  4  0
  4  5  4  0
  5  6  4  0
  6  1  4  0
M  END
$$$$

     RDKit          3D

  6  6  0  0  0  0  0  0  0  0999 V2000
    1.4121    0.0370    0.0835 C   0  0  0  0  0  0  0  0  0  0  0  0
    0.6461    0.4627    1.1825 C   0  0  0  0  0  0  0  0  0  0  0  0
   -0.7502    0.4326    1.1301 C   0  0  0  0  0  0  0  0  0  0  0  0
   -1.4127   -0.0238   -0.0225 C   0  0  0  0  0  0  0  0  0  0  0  0
   -0.6466   -0.4494   -1.1215 C   0  0  0  0  0  0  0  0  0  0  0  0
    0.7496   -0.4193   -1.0691 C   0  0  0  0  0  0  0  0  0  0  0  0
  1  2  4  0
  2  3  4  0
  3  4  4  0
  4  5  4  0
  5  6  4  0
  6  1  4  0
M  END
$$$$

     RDKit          3D

  6  6  0  0  0  0  0  0  0  0999 V2000
    1.4114   -0.0317   -0.0629 C   0  0  0  0  0  0  0  0  0  0  0  0
    0.6297    0.8175   -0.8650 C   0  0  0  0  0  0  0  0  0  0  0  0
   -0.7656    0.7683   -0.8029 C   0  0  0  0  0  0  0  0  0  0  0  0
   -1.4114   -0.1312    0.0629 C   0  0  0  0  0  0  0  0  0  0  0  0
   -0.6297   -0.9804    0.8650 C   0  0  0  0  0  0  0  0  0  0  0  0
    0.7656   -0.9313    0.8029 C   0  0  0  0  0  0  0  0  0  0  0  0
  1  2  4  0
  2  3  4  0
  3  4  4  0
  4  5  4  0
  5  6  4  0
  6  1  4  0
M  END
$$$$

     RDKit          3D

  6  6  0  0  0  0  0  0  0  0999 V2000
    1.3975   -0.1847    0.0843 C   0  0  0  0  0  0  0  0  0  0  0  0
    0.6592   -0.8655   -0.8992 C   0  0  0  0  0  0  0  0  0  0  0  0
   -0.7223   -0.6829   -1.0044 C   0  0  0  0  0  0  0  0  0  0  0  0
   -1.3975    0.1847   -0.1285 C   0  0  0  0  0  0  0  0  0  0  0  0
   -0.6592    0.8655    0.8549 C   0  0  0  0  0  0  0  0  0  0  0  0
    0.7223    0.6829    0.9601 C   0  0  0  0  0  0  0  0  0  0  0  0
  1  2  4  0
  2  3  4  0
  3  4  4  0
  4  5  4  0
  5  6  4  0
  6  1  4  0
M  END
$$$$

     RDKit          3D

  6  6  0  0  0  0  0  0  0  0999 V2000
    1.4109   -0.0428   -0.0836 C   0  0  0  0  0  0  0  0  0  0  0  0
    0.6228    0.6299   -1.0335 C   0  0  0  0  0  0  0  0  0  0  0  0
   -0.7719    0.5980   -0.9508 C   0  0  0  0  0  0  0  0  0  0  0  0
   -1.4109   -0.1074    0.0836 C   0  0  0  0  0  0  0  0  0  0  0  0
   -0.6228   -0.7801    1.0334 C   0  0  0  0  0  0  0  0  0  0  0  0
    0.7719   -0.7481    0.9508 C   0  0  0  0  0  0  0  0  0  0  0  0
  1  2  4  0
  2  3  4  0
  3  4  4  0
  4  5  4  0
  5  6  4  0
  6  1  4  0
M  END
$$$$

     RDKit          3D

  6  6  0  0  0  0  0  0  0  0999 V2000
   -1.4117    0.0679   -0.1634 C   0  0  0  0  0  0  0  0  0  0  0  0
   -0.7228    0.0496    1.0617 C   0  0  0  0  0  0  0  0  0  0  0  0
    0.6726   -0.0212    1.0915 C   0  0  0  0  0  0  0  0  0  0  0  0
    1.4112   -0.0776   -0.1031 C   0  0  0  0  0  0  0  0  0  0  0  0
    0.7223   -0.0605   -1.3281 C   0  0  0  0  0  0  0  0  0  0  0  0
   -0.6730    0.0125   -1.3580 C   0  0  0  0  0  0  0  0  0  0  0  0
  1  2  4  0
  2  3  4  0
  3  4  4  0
  4  5  4  0
  5  6  4  0
  6  1  4  0
M  END
$$$$

     RDKit          3D

  6  6  0  0  0  0  0  0  0  0999 V2000
   -1.4102    0.0573    0.0737 C   0  0  0  0  0  0  0  0  0  0  0  0
   -0.7138   -1.0761    0.5277 C   0  0  0  0  0  0  0  0  0  0  0  0
    0.6799   -1.1352    0.4429 C   0  0  0  0  0  0  0  0  0  0  0  0
    1.4095   -0.0613   -0.0956 C   0  0  0  0  0  0  0  0  0  0  0  0
    0.7132    1.0726   -0.5485 C   0  0  0  0  0  0  0  0  0  0  0  0
   -0.6807    1.1308   -0.4658 C   0  0  0  0  0  0  0  0  0  0  0  0
  1  2  4  0
  2  3  4  0
  3  4  4  0
  4  5  4  0
  5  6  4  0
  6  1  4  0
M  END
$$$$

     RDKit          3D

  6  6  0  0  0  0  0  0  0  0999 V2000
   -1.4136    0.0001    0.0394 C   0  0  0  0  0  0  0  0  0  0  0  0
   -0.7060    0.5718   -1.0321 C   0  0  0  0  0  0  0  0  0  0  0  0
    0.6915    0.5770   -1.0389 C   0  0  0  0  0  0  0  0  0  0  0  0
    1.4137    0.0085    0.0246 C   0  0  0  0  0  0  0  0  0  0  0  0
    0.7060   -0.5642    1.0956 C   0  0  0  0  0  0  0  0  0  0  0  0
   -0.6915   -0.5674    1.1034 C   0  0  0  0  0  0  0  0  0  0  0  0
  1  2  4  0
  2  3  4  0
  3  4  4  0
  4  5  4  0
  5  6  4  0
  6  1  4  0
M  END
$$$$

     RDKit          3D

  6  6  0  0  0  0  0  0  0  0999 V2000
    1.4106   -0.0762   -0.0625 C   0  0  0  0  0  0  0  0  0  0  0  0
    0.7633    0.5174   -1.1600 C   0  0  0  0  0  0  0  0  0  0  0  0
   -0.6315    0.5891   -1.2089 C   0  0  0  0  0  0  0  0  0  0  0  0
   -1.4112    0.0709   -0.1605 C   0  0  0  0  0  0  0  0  0  0  0  0
   -0.7639   -0.5217    0.9375 C   0  0  0  0  0  0  0  0  0  0  0  0
    0.6309   -0.5954    0.9854 C   0  0  0  0  0  0  0  0  0  0  0  0
  1  2  4  0
  2  3  4  0
  3  4  4  0
  4  5  4  0
  5  6  4  0
  6  1  4  0
M  END
$$$$
