
     RDKit          3D

  7  7  0  0  0  0  0  0  0  0999 V2000
    1.2158    1.7150    2.3766 Cl  0  0  0  0  0  0  0  0  0  0  0  0
    0.5445    0.7923    1.0359 C   0  0  0  0  0  0  0  0  0  0  0  0
   -0.8411    0.6027    0.9818 C   0  0  0  0  0  0  0  0  0  0  0  0
   -1.4162   -0.1480   -0.0536 C   0  0  0  0  0  0  0  0  0  0  0  0
   -0.5938   -0.7105   -1.0391 C   0  0  0  0  0  0  0  0  0  0  0  0
    0.7894   -0.5256   -0.9900 C   0  0  0  0  0  0  0  0  0  0  0  0
    1.3706    0.2235    0.0450 C   0  0  0  0  0  0  0  0  0  0  0  0
  1  2  1  0
  2  3  4  0
  3  4  4  0
  4  5  4  0
  5  6  4  0
  6  7  4  0
  7  2  4  0
M  END
$$$$

     RDKit          3D

  7  7  0  0  0  0  0  0  0  0999 V2000
   -1.7109   -1.0071   -2.4754 Cl  0  0  0  0  0  0  0  0  0  0  0  0
   -0.7708   -0.4786   -1.0839 C   0  0  0  0  0  0  0  0  0  0  0  0
    0.6203   -0.6286   -1.1204 C   0  0  0  0  0  0  0  0  0  0  0  0
    1.4105   -0.1971   -0.0454 C   0  0  0  0  0  0  0  0  0  0  0  0
    0.7987    0.3881    1.0714 C   0  0  0  0  0  0  0  0  0  0  0  0
   -0.5886    0.5413    1.1134 C   0  0  0  0  0  0  0  0  0  0  0  0
   -1.3843    0.1127    0.0394 C   0  0  0  0  0  0  0  0  0  0  0  0
  1  2  1  0
  2  3  4  0
  3  4  4  0
  4  5  4  0
  5  6  4  0
  6  7  4  0
  7  2  4  0
M  END
$$$$

     RDKit          3D

  7  7  0  0  0  0  0  0  0  0999 V2000
   -1.3736   -2.2247   -1.7440 Cl  0  0  0  0  0  0  0  0  0  0  0  0
   -0.6177   -0.9711   -0.7659 C   0  0  0  0  0  0  0  0  0  0  0  0
    0.7790   -0.9400   -0.6811 C   0  0  0  0  0  0  0  0  0  0  0  0
    1.4223    0.0250    0.1071 C   0  0  0  0  0  0  0  0  0  0  0  0
    0.6571    0.9619    0.8146 C   0  0  0  0  0  0  0  0  0  0  0  0
   -0.7368    0.9355    0.7348 C   0  0  0  0  0  0  0  0  0  0  0  0
   -1.3859   -0.0287   -0.0522 C   0  0  0  0  0  0  0  0  0  0  0  0
  1  2  1  0
  2  3  4  0
  3  4  4  0
  4  5  4  0
  5  6  4  0
  6  7  4  0
  7  2  4  0
M  END
$$$$

     RDKit          3D

  7  7  0  0  0  0  0  0  0  0999 V2000
   -1.1968    2.8766   -0.4471 Cl  0  0  0  0  0  0  0  0  0  0  0  0
   -0.5405    1.2679   -0.1629 C   0  0  0  0  0  0  0  0  0  0  0  0
    0.8495    1.1043   -0.1546 C   0  0  0  0  0  0  0  0  0  0  0  0
    1.4159   -0.1543    0.0934 C   0  0  0  0  0  0  0  0  0  0  0  0
    0.5804   -1.2529    0.3360 C   0  0  0  0  0  0  0  0  0  0  0  0
   -0.8071   -1.0959    0.3299 C   0  0  0  0  0  0  0  0  0  0  0  0
   -1.3794    0.1617    0.0828 C   0  0  0  0  0  0  0  0  0  0  0  0
  1  2  1  0
  2  3  4  0
  3  4  4  0
  4  5  4  0
  5  6  4  0
  6  7  4  0
  7  2  4  0
M  END
$$$$

     RDKit          3D

  6  6  0  0  0  0  0  0  0  0999 V2000
    0.2503    0.1919    0.0243 C   0  0  0  0  0  0  0  0  0  0  0  0
   -0.4684    0.6664   -1.0827 C   0  0  0  0  0  0  0  0  0  0  0  0
   -1.8613    0.5579   -1.1201 C   0  0  0  0  0  0  0  0  0  0  0  0
   -2.5621   -0.0211   -0.0467 C   0  0  0  0  0  0  0  0  0  0  0  0
   -1.8377   -0.4844    1.0666 C   0  0  0  0  0  0  0  0  0  0  0  0
   -0.4451   -0.3742    1.1033 C   0  0  0  0  0  0  0  0  0  0  0  0
  1  2  4  0
  2  3  4  0
  3  4  4  0
  4  5  4  0
  5  6  4  0
  6  1  4  0
M  END
$$$$

     RDKit          3D

  6  6  0  0  0  0  0  0  0  0999 V2000
   -0.2579    0.1623    0.0556 C   0  0  0  0  0  0  0  0  0  0  0  0
    0.4174   -1.0149    0.4113 C   0  0  0  0  0  0  0  0  0  0  0  0
    1.8141   -1.0583    0.4028 C   0  0  0  0  0  0  0  0  0  0  0  0
    2.5622    0.0788    0.0478 C   0  0  0  0  0  0  0  0  0  0  0  0
    1.8807    1.2606   -0.2950 C   0  0  0  0  0  0  0  0  0  0  0  0
    0.4837    1.3023   -0.2874 C   0  0  0  0  0  0  0  0  0  0  0  0
  1  2  4  0
  2  3  4  0
  3  4  4  0
  4  5  4  0
  5  6  4  0
  6  1  4  0
M  END
$$$$

     RDKit          3D

  6  6  0  0  0  0  0  0  0  0999 V2000
    0.2674    0.1730    0.0121 C   0  0  0  0  0  0  0  0  0  0  0  0
   -0.4195    0.9479    0.9580 C   0  0  0  0  0  0  0  0  0  0  0  0
   -1.8167    0.9811    0.9640 C   0  0  0  0  0  0  0  0  0  0  0  0
   -2.5531    0.2449    0.0182 C   0  0  0  0  0  0  0  0  0  0  0  0
   -1.8593   -0.5210   -0.9361 C   0  0  0  0  0  0  0  0  0  0  0  0
   -0.4622   -0.5524   -0.9417 C   0  0  0  0  0  0  0  0  0  0  0  0
  1  2  4  0
  2  3  4  0
  3  4  4  0
  4  5  4  0
  5  6  4  0
  6  1  4  0
M  END
$$$$

     RDKit          3D

  6  6  0  0  0  0  0  0  0  0999 V2000
   -0.2688    0.1547   -0.0723 C   0  0  0  0  0  0  0  0  0  0  0  0
    0.4825   -0.1439    1.0743 C   0  0  0  0  0  0  0  0  0  0  0  0
    1.8790   -0.1160    1.0311 C   0  0  0  0  0  0  0  0  0  0  0  0
    2.5505    0.2189   -0.1587 C   0  0  0  0  0  0  0  0  0  0  0  0
    1.7925    0.5294   -1.3023 C   0  0  0  0  0  0  0  0  0  0  0  0
    0.3959    0.5020   -1.2575 C   0  0  0  0  0  0  0  0  0  0  0  0
  1  2  4  0
  2  3  4  0
  3  4  4  0
  4  5  4  0
  5  6  4  0
  6  1  4  0
M  END
$$$$

     RDKit          3D

  6  6  0  0  0  0  0  0  0  0999 V2000
   -0.2558    0.1887   -0.0202 C   0  0  0  0  0  0  0  0  0  0  0  0
    0.5083    0.9170   -0.9438 C   0  0  0  0  0  0  0  0  0  0  0  0
    1.9043    0.8633   -0.9044 C   0  0  0  0  0  0  0  0  0  0  0  0
    2.5624    0.0869    0.0666 C   0  0  0  0  0  0  0  0  0  0  0  0
    1.7919   -0.6313    0.9989 C   0  0  0  0  0  0  0  0  0  0  0  0
    0.3961   -0.5774    0.9578 C   0  0  0  0  0  0  0  0  0  0  0  0
  1  2  4  0
  2  3  4  0
  3  4  4  0
  4  5  4  0
  5  6  4  0
  6  1  4  0
M  END
$$$$

     RDKit          3D

  7  7  0  0  0  0  0  0  0  0999 V2000
   -0.7190   -1.3610   -2.0083 C   0  0  0  0  0  0  0  0  0  0  0  0
   -0.1640   -0.5750   -0.8496 C   0  0  0  0  0  0  0  0  0  0  0  0
   -1.0109   -0.0732    0.1634 C   0  0  0  0  0  0  0  0  0  0  0  0
   -0.4643    0.6569    1.2271 C   0  0  0  0  0  0  0  0  0  0  0  0
    0.9077    0.9024    1.2863 C   0  0  0  0  0  0  0  0  0  0  0  0
    1.7620    0.4217    0.2808 C   0  0  0  0  0  0  0  0  0  0  0  0
    1.2151   -0.3139   -0.7855 C   0  0  0  0  0  0  0  0  0  0  0  0
  1  2  1  0
  2  3  4  0
  3  4  4  0
  4  5  4  0
  5  6  4  0
  6  7  4  0
  7  2  4  0
M  END
$$$$

     RDKit          3D

  7  7  0  0  0  0  0  0  0  0999 V2000
   -1.1936    2.3599   -0.5519 C   0  0  0  0  0  0  0  0  0  0  0  0
   -0.3713    1.1340   -0.2527 C   0  0  0  0  0  0  0  0  0  0  0  0
   -0.9813   -0.0643    0.1799 C   0  0  0  0  0  0  0  0  0  0  0  0
   -0.1888   -1.1855    0.4596 C   0  0  0  0  0  0  0  0  0  0  0  0
    1.1964   -1.1302    0.3034 C   0  0  0  0  0  0  0  0  0  0  0  0
    1.8176    0.0493   -0.1381 C   0  0  0  0  0  0  0  0  0  0  0  0
    1.0237    1.1764   -0.4151 C   0  0  0  0  0  0  0  0  0  0  0  0
  1  2  1  0
  2  3  4  0
  3  4  4  0
  4  5  4  0
  5  6  4  0
  6  7  4  0
  7  2  4  0
M  END
$$$$

     RDKit          3D

  7  7  0  0  0  0  0  0  0  0999 V2000
   -0.8080    2.3389   -0.2626 C   0  0  0  0  0  0  0  0  0  0  0  0
   -0.1974    0.9621   -0.2701 C   0  0  0  0  0  0  0  0  0  0  0  0
   -1.0077   -0.1937   -0.3229 C   0  0  0  0  0  0  0  0  0  0  0  0
   -0.4098   -1.4609   -0.3387 C   0  0  0  0  0  0  0  0  0  0  0  0
    0.9784   -1.5895   -0.2911 C   0  0  0  0  0  0  0  0  0  0  0  0
    1.7980   -0.4511   -0.2245 C   0  0  0  0  0  0  0  0  0  0  0  0
    1.1995    0.8212   -0.2139 C   0  0  0  0  0  0  0  0  0  0  0  0
  1  2  1  0
  2  3  4  0
  3  4  4  0
  4  5  4  0
  5  6  4  0
  6  7  4  0
  7  2  4  0
M  END
$$$$

     RDKit          3D

  7  7  0  0  0  0  0  0  0  0999 V2000
    0.8752   -0.0988   -2.3593 C   0  0  0  0  0  0  0  0  0  0  0  0
    0.2200   -0.2010   -1.0071 C   0  0  0  0  0  0  0  0  0  0  0  0
    0.9901   -0.3760    0.1640 C   0  0  0  0  0  0  0  0  0  0  0  0
    0.3510   -0.4775    1.4068 C   0  0  0  0  0  0  0  0  0  0  0  0
   -1.0387   -0.3956    1.4972 C   0  0  0  0  0  0  0  0  0  0  0  0
   -1.8183   -0.2082    0.3443 C   0  0  0  0  0  0  0  0  0  0  0  0
   -1.1785   -0.1112   -0.9040 C   0  0  0  0  0  0  0  0  0  0  0  0
  1  2  1  0
  2  3  4  0
  3  4  4  0
  4  5  4  0
  5  6  4  0
  6  7  4  0
  7  2  4  0
M  END
$$$$

     RDKit          3D

  7  7  0  0  0  0  0  0  0  0999 V2000
   -1.1721    1.9383   -1.7645 C   0  0  0  0  0  0  0  0  0  0  0  0
   -0.3573    0.8538   -1.1099 C   0  0  0  0  0  0  0  0  0  0  0  0
   -0.9799   -0.2512   -0.4882 C   0  0  0  0  0  0  0  0  0  0  0  0
   -0.1941   -1.2426    0.1144 C   0  0  0  0  0  0  0  0  0  0  0  0
    1.1971   -1.1397    0.1161 C   0  0  0  0  0  0  0  0  0  0  0  0
    1.8315   -0.0408   -0.4856 C   0  0  0  0  0  0  0  0  0  0  0  0
    1.0442    0.9526   -1.0943 C   0  0  0  0  0  0  0  0  0  0  0  0
  1  2  1  0
  2  3  4  0
  3  4  4  0
  4  5  4  0
  5  6  4  0
  6  7  4  0
  7  2  4  0
M  END
$$$$

     RDKit          3D

  7  7  0  0  0  0  0  0  0  0999 V2000
   -1.1714    1.5198   -2.0766 C   0  0  0  0  0  0  0  0  0  0  0  0
   -0.3543    0.8547   -1.0003 C   0  0  0  0  0  0  0  0  0  0  0  0
   -0.9737    0.2431    0.1122 C   0  0  0  0  0  0  0  0  0  0  0  0
   -0.1859   -0.3697    1.0957 C   0  0  0  0  0  0  0  0  0  0  0  0
    1.2039   -0.3915    0.9777 C   0  0  0  0  0  0  0  0  0  0  0  0
    1.8349    0.1998   -0.1288 C   0  0  0  0  0  0  0  0  0  0  0  0
    1.0456    0.8188   -1.1143 C   0  0  0  0  0  0  0  0  0  0  0  0
  1  2  1  0
  2  3  4  0
  3  4  4  0
  4  5  4  0
  5  6  4  0
  6  7  4  0
  7  2  4  0
M  END
$$$$

     RDKit          3D

  7  7  0  0  0  0  0  0  0  0999 V2000
   -1.1086   -1.9215    1.6599 C   0  0  0  0  0  0  0  0  0  0  0  0
   -0.3301   -0.9178    0.8506 C   0  0  0  0  0  0  0  0  0  0  0  0
   -0.9713    0.1885    0.2506 C   0  0  0  0  0  0  0  0  0  0  0  0
   -0.2186    1.1107   -0.4885 C   0  0  0  0  0  0  0  0  0  0  0  0
    1.1569    0.9383   -0.6452 C   0  0  0  0  0  0  0  0  0  0  0  0
    1.8079   -0.1629   -0.0659 C   0  0  0  0  0  0  0  0  0  0  0  0
    1.0543   -1.0868    0.6795 C   0  0  0  0  0  0  0  0  0  0  0  0
  1  2  1  0
  2  3  4  0
  3  4  4  0
  4  5  4  0
  5  6  4  0
  6  7  4  0
  7  2  4  0
M  END
$$$$

     RDKit          3D

  7  7  0  0  0  0  0  0  0  0999 V2000
   -0.9675   -1.9422    1.0722 C   0  0  0  0  0  0  0  0  0  0  0  0
   -0.2667   -0.8480    0.3101 C   0  0  0  0  0  0  0  0  0  0  0  0
   -0.9993    0.1242   -0.4069 C   0  0  0  0  0  0  0  0  0  0  0  0
   -0.3214    1.1527   -1.0741 C   0  0  0  0  0  0  0  0  0  0  0  0
    1.0715    1.2227   -1.0373 C   0  0  0  0  0  0  0  0  0  0  0  0
    1.8151    0.2654   -0.3283 C   0  0  0  0  0  0  0  0  0  0  0  0
    1.1354   -0.7644    0.3462 C   0  0  0  0  0  0  0  0  0  0  0  0
  1  2  1  0
  2  3  4  0
  3  4  4  0
  4  5  4  0
  5  6  4  0
  6  7  4  0
  7  2  4  0
M  END
$$$$

     RDKit          3D

  7  7  0  0  0  0  0  0  0  0999 V2000
    1.2221   -1.2221   -2.2468 C   0  0  0  0  0  0  0  0  0  0  0  0
    0.3857   -0.6015   -1.1589 C   0  0  0  0  0  0  0  0  0  0  0  0
    0.9843   -0.0548   -0.0023 C   0  0  0  0  0  0  0  0  0  0  0  0
    0.1789    0.5073    0.9971 C   0  0  0  0  0  0  0  0  0  0  0  0
   -1.2083    0.5408    0.8531 C   0  0  0  0  0  0  0  0  0  0  0  0
   -1.8187    0.0129   -0.2962 C   0  0  0  0  0  0  0  0  0  0  0  0
   -1.0118   -0.5550   -1.2980 C   0  0  0  0  0  0  0  0  0  0  0  0
  1  2  1  0
  2  3  4  0
  3  4  4  0
  4  5  4  0
  5  6  4  0
  6  7  4  0
  7  2  4  0
M  END
$$$$
