
     RDKit          3D

  6  6  0  0  0  0  0  0  0  0999 V2000
   -0.6868   -1.0159    0.5101 N   0  0  0  0  0  0  0  0  0  0  0  0
    0.6446   -1.0310    0.5431 N   0  0  0  0  0  0  0  0  0  0  0  0
    1.3660   -0.0023    0.0274 C   0  0  0  0  0  0  0  0  0  0  0  0
    0.6945    1.0421   -0.5230 N   0  0  0  0  0  0  0  0  0  0  0  0
   -0.6369    1.0573   -0.5561 N   0  0  0  0  0  0  0  0  0  0  0  0
   -1.3586    0.0289   -0.0404 C   0  0  0  0  0  0  0  0  0  0  0  0
  1  2  4  0
  2  3  4  0
  3  4  4  0
  4  5  4  0
  5  6  4  0
  6  1  4  0
M  END
$$$$

     RDKit          3D

  6  6  0  0  0  0  0  0  0  0999 V2000
   -0.6863    1.1272   -0.2862 N   0  0  0  0  0  0  0  0  0  0  0  0
    0.6453    1.1472   -0.3115 N   0  0  0  0  0  0  0  0  0  0  0  0
    1.3651    0.0428    0.0148 C   0  0  0  0  0  0  0  0  0  0  0  0
    0.6919   -1.0828    0.3678 N   0  0  0  0  0  0  0  0  0  0  0  0
   -0.6396   -1.1029    0.3930 N   0  0  0  0  0  0  0  0  0  0  0  0
   -1.3597    0.0019    0.0665 C   0  0  0  0  0  0  0  0  0  0  0  0
  1  2  4  0
  2  3  4  0
  3  4  4  0
  4  5  4  0
  5  6  4  0
  6  1  4  0
M  END
$$$$

     RDKit          3D

  6  6  0  0  0  0  0  0  0  0999 V2000
    0.6908    1.0726    0.2603 N   0  0  0  0  0  0  0  0  0  0  0  0
   -0.6399    1.1179    0.2255 N   0  0  0  0  0  0  0  0  0  0  0  0
   -1.3654    0.0243   -0.1243 C   0  0  0  0  0  0  0  0  0  0  0  0
   -0.6986   -1.1167   -0.4376 N   0  0  0  0  0  0  0  0  0  0  0  0
    0.6321   -1.1621   -0.4028 N   0  0  0  0  0  0  0  0  0  0  0  0
    1.3578   -0.0688   -0.0531 C   0  0  0  0  0  0  0  0  0  0  0  0
  1  2  4  0
  2  3  4  0
  3  4  4  0
  4  5  4  0
  5  6  4  0
  6  1  4  0
M  END
$$$$

     RDKit          3D

  6  6  0  0  0  0  0  0  0  0999 V2000
    0.7468   -0.5413    1.0647 N   0  0  0  0  0  0  0  0  0  0  0  0
   -0.5813   -0.5708    1.1606 N   0  0  0  0  0  0  0  0  0  0  0  0
   -1.3623   -0.0338    0.1879 C   0  0  0  0  0  0  0  0  0  0  0  0
   -0.7538    0.5344   -0.8852 N   0  0  0  0  0  0  0  0  0  0  0  0
    0.5743    0.5641   -0.9811 N   0  0  0  0  0  0  0  0  0  0  0  0
    1.3556    0.0268   -0.0081 C   0  0  0  0  0  0  0  0  0  0  0  0
  1  2  4  0
  2  3  4  0
  3  4  4  0
  4  5  4  0
  5  6  4  0
  6  1  4  0
M  END
$$$$

     RDKit          3D

  6  6  0  0  0  0  0  0  0  0999 V2000
    0.7302    1.0462    0.4235 N   0  0  0  0  0  0  0  0  0  0  0  0
   -0.5972    1.1470    0.3816 N   0  0  0  0  0  0  0  0  0  0  0  0
   -1.3617    0.1096   -0.0472 C   0  0  0  0  0  0  0  0  0  0  0  0
   -0.7374   -1.0334   -0.4323 N   0  0  0  0  0  0  0  0  0  0  0  0
    0.5900   -1.1344   -0.3904 N   0  0  0  0  0  0  0  0  0  0  0  0
    1.3548   -0.0966    0.0386 C   0  0  0  0  0  0  0  0  0  0  0  0
  1  2  4  0
  2  3  4  0
  3  4  4  0
  4  5  4  0
  5  6  4  0
  6  1  4  0
M  END
$$$$

     RDKit          3D

  6  6  0  0  0  0  0  0  0  0999 V2000
   -0.6175   -0.9944    0.6458 N   0  0  0  0  0  0  0  0  0  0  0  0
    0.7134   -0.9460    0.6277 N   0  0  0  0  0  0  0  0  0  0  0  0
    1.3654    0.0550   -0.0185 C   0  0  0  0  0  0  0  0  0  0  0  0
    0.6250    1.0053   -0.6456 N   0  0  0  0  0  0  0  0  0  0  0  0
   -0.7059    0.9571   -0.6275 N   0  0  0  0  0  0  0  0  0  0  0  0
   -1.3582   -0.0437    0.0184 C   0  0  0  0  0  0  0  0  0  0  0  0
  1  2  4  0
  2  3  4  0
  3  4  4  0
  4  5  4  0
  5  6  4  0
  6  1  4  0
M  END
$$$$

     RDKit          3D

  6  6  0  0  0  0  0  0  0  0999 V2000
   -0.7066    0.8532    0.6644 N   0  0  0  0  0  0  0  0  0  0  0  0
    0.6162    0.9862    0.5839 N   0  0  0  0  0  0  0  0  0  0  0  0
    1.3568    0.1389   -0.1765 C   0  0  0  0  0  0  0  0  0  0  0  0
    0.7133   -0.8475   -0.8529 N   0  0  0  0  0  0  0  0  0  0  0  0
   -0.6095   -0.9808   -0.7724 N   0  0  0  0  0  0  0  0  0  0  0  0
   -1.3502   -0.1338   -0.0121 C   0  0  0  0  0  0  0  0  0  0  0  0
  1  2  4  0
  2  3  4  0
  3  4  4  0
  4  5  4  0
  5  6  4  0
  6  1  4  0
M  END
$$$$

     RDKit          3D

  6  6  0  0  0  0  0  0  0  0999 V2000
    0.6919   -0.7735   -0.8474 N   0  0  0  0  0  0  0  0  0  0  0  0
   -0.6396   -0.8020   -0.8675 N   0  0  0  0  0  0  0  0  0  0  0  0
   -1.3660   -0.0267   -0.0213 C   0  0  0  0  0  0  0  0  0  0  0  0
   -0.6994    0.7785    0.8458 N   0  0  0  0  0  0  0  0  0  0  0  0
    0.6321    0.8071    0.8659 N   0  0  0  0  0  0  0  0  0  0  0  0
    1.3587    0.0314    0.0196 C   0  0  0  0  0  0  0  0  0  0  0  0
  1  2  4  0
  2  3  4  0
  3  4  4  0
  4  5  4  0
  5  6  4  0
  6  1  4  0
M  END
$$$$

     RDKit          3D

  6  6  0  0  0  0  0  0  0  0999 V2000
    0.5706    0.2453    1.3854 N   0  0  0  0  0  0  0  0  0  0  0  0
   -0.7546    0.3097    1.2673 N   0  0  0  0  0  0  0  0  0  0  0  0
   -1.3607    0.0672    0.0763 C   0  0  0  0  0  0  0  0  0  0  0  0
   -0.5804   -0.2429   -0.9912 N   0  0  0  0  0  0  0  0  0  0  0  0
    0.7447   -0.3072   -0.8733 N   0  0  0  0  0  0  0  0  0  0  0  0
    1.3511   -0.0645    0.3181 C   0  0  0  0  0  0  0  0  0  0  0  0
  1  2  4  0
  2  3  4  0
  3  4  4  0
  4  5  4  0
  5  6  4  0
  6  1  4  0
M  END
$$$$

     RDKit          3D

  6  6  0  0  0  0  0  0  0  0999 V2000
   -0.7420   -0.9535    0.2807 N   0  0  0  0  0  0  0  0  0  0  0  0
    0.5776   -1.0789    0.1502 N   0  0  0  0  0  0  0  0  0  0  0  0
    1.3545   -0.0031   -0.1388 C   0  0  0  0  0  0  0  0  0  0  0  0
    0.7509    1.2039   -0.2914 N   0  0  0  0  0  0  0  0  0  0  0  0
   -0.5686    1.3295   -0.1610 N   0  0  0  0  0  0  0  0  0  0  0  0
   -1.3458    0.2540    0.1280 C   0  0  0  0  0  0  0  0  0  0  0  0
  1  2  4  0
  2  3  4  0
  3  4  4  0
  4  5  4  0
  5  6  4  0
  6  1  4  0
M  END
$$$$

     RDKit          3D

  8  8  0  0  0  0  0  0  0  0999 V2000
   -1.1572   -2.4491   -0.5780 F   0  0  0  0  0  0  0  0  0  0  0  0
   -0.5959   -1.2453   -0.2977 C   0  0  0  0  0  0  0  0  0  0  0  0
    0.7974   -1.1363   -0.2664 C   0  0  0  0  0  0  0  0  0  0  0  0
    1.4117    0.1010   -0.0123 C   0  0  0  0  0  0  0  0  0  0  0  0
    0.6060    1.2321    0.1981 C   0  0  0  0  0  0  0  0  0  0  0  0
   -0.7876    1.1280    0.1677 C   0  0  0  0  0  0  0  0  0  0  0  0
   -1.5374    2.2354    0.4014 F   0  0  0  0  0  0  0  0  0  0  0  0
   -1.4014   -0.1138   -0.0754 C   0  0  0  0  0  0  0  0  0  0  0  0
  1  2  1  0
  2  3  4  0
  3  4  4  0
  4  5  4  0
  5  6  4  0
  6  7  1  0
  6  8  4  0
  8  2  4  0
M  END
$$$$

     RDKit          3D

  8  8  0  0  0  0  0  0  0  0999 V2000
    1.5311   -1.5527    1.4754 F   0  0  0  0  0  0  0  0  0  0  0  0
    0.7837   -0.7773    0.6490 C   0  0  0  0  0  0  0  0  0  0  0  0
   -0.6035   -0.9483    0.6267 C   0  0  0  0  0  0  0  0  0  0  0  0
   -1.4040   -0.1819   -0.2361 C   0  0  0  0  0  0  0  0  0  0  0  0
   -0.7924    0.7692   -1.0692 C   0  0  0  0  0  0  0  0  0  0  0  0
    0.5944    0.9437   -1.0505 C   0  0  0  0  0  0  0  0  0  0  0  0
    1.1505    1.8940   -1.8447 F   0  0  0  0  0  0  0  0  0  0  0  0
    1.3959    0.1674   -0.1941 C   0  0  0  0  0  0  0  0  0  0  0  0
  1  2  1  0
  2  3  4  0
  3  4  4  0
  4  5  4  0
  5  6  4  0
  6  7  1  0
  6  8  4  0
  8  2  4  0
M  END
$$$$

     RDKit          3D

  8  8  0  0  0  0  0  0  0  0999 V2000
   -1.3238    0.2833    2.4585 F   0  0  0  0  0  0  0  0  0  0  0  0
   -0.6809    0.1222    1.2737 C   0  0  0  0  0  0  0  0  0  0  0  0
    0.7158    0.0660    1.2610 C   0  0  0  0  0  0  0  0  0  0  0  0
    1.4144   -0.0667    0.0498 C   0  0  0  0  0  0  0  0  0  0  0  0
    0.6903   -0.1299   -1.1520 C   0  0  0  0  0  0  0  0  0  0  0  0
   -0.7065   -0.0740   -1.1443 C   0  0  0  0  0  0  0  0  0  0  0  0
   -1.3771   -0.1645   -2.3211 F   0  0  0  0  0  0  0  0  0  0  0  0
   -1.4051    0.0473    0.0703 C   0  0  0  0  0  0  0  0  0  0  0  0
  1  2  1  0
  2  3  4  0
  3  4  4  0
  4  5  4  0
  5  6  4  0
  6  7  1  0
  6  8  4  0
  8  2  4  0
M  END
$$$$

     RDKit          3D

  8  8  0  0  0  0  0  0  0  0999 V2000
   -0.9234    2.3429    1.1885 F   0  0  0  0  0  0  0  0  0  0  0  0
   -0.4774    1.1893    0.6287 C   0  0  0  0  0  0  0  0  0  0  0  0
    0.8996    0.9740    0.5213 C   0  0  0  0  0  0  0  0  0  0  0  0
    1.3954   -0.2200   -0.0277 C   0  0  0  0  0  0  0  0  0  0  0  0
    0.4874   -1.1917   -0.4795 C   0  0  0  0  0  0  0  0  0  0  0  0
   -0.8905   -0.9809   -0.3740 C   0  0  0  0  0  0  0  0  0  0  0  0
   -1.7407   -1.9262   -0.8498 F   0  0  0  0  0  0  0  0  0  0  0  0
   -1.3853    0.2105    0.1865 C   0  0  0  0  0  0  0  0  0  0  0  0
  1  2  1  0
  2  3  4  0
  3  4  4  0
  4  5  4  0
  5  6  4  0
  6  7  1  0
  6  8  4  0
  8  2  4  0
M  END
$$$$

     RDKit          3D

  8  8  0  0  0  0  0  0  0  0999 V2000
   -1.1400   -1.3787    1.9848 F   0  0  0  0  0  0  0  0  0  0  0  0
   -0.5875   -0.6313    0.9953 C   0  0  0  0  0  0  0  0  0  0  0  0
    0.8037   -0.6018    0.8617 C   0  0  0  0  0  0  0  0  0  0  0  0
    1.4090    0.1784   -0.1370 C   0  0  0  0  0  0  0  0  0  0  0  0
    0.5969    0.9369   -0.9960 C   0  0  0  0  0  0  0  0  0  0  0  0
   -0.7947    0.9107   -0.8663 C   0  0  0  0  0  0  0  0  0  0  0  0
   -1.5519    1.6263   -1.7366 F   0  0  0  0  0  0  0  0  0  0  0  0
   -1.3995    0.1278    0.1336 C   0  0  0  0  0  0  0  0  0  0  0  0
  1  2  1  0
  2  3  4  0
  3  4  4  0
  4  5  4  0
  5  6  4  0
  6  7  1  0
  6  8  4  0
  8  2  4  0
M  END
$$$$

     RDKit          3D

  8  8  0  0  0  0  0  0  0  0999 V2000
   -1.2632   -0.0020    2.4467 F   0  0  0  0  0  0  0  0  0  0  0  0
   -0.6487   -0.0163    1.2362 C   0  0  0  0  0  0  0  0  0  0  0  0
    0.7461    0.0582    1.1817 C   0  0  0  0  0  0  0  0  0  0  0  0
    1.4125    0.0842   -0.0544 C   0  0  0  0  0  0  0  0  0  0  0  0
    0.6578    0.0256   -1.2376 C   0  0  0  0  0  0  0  0  0  0  0  0
   -0.7372   -0.0489   -1.1880 C   0  0  0  0  0  0  0  0  0  0  0  0
   -1.4357   -0.1261   -2.3495 F   0  0  0  0  0  0  0  0  0  0  0  0
   -1.4031   -0.0736    0.0505 C   0  0  0  0  0  0  0  0  0  0  0  0
  1  2  1  0
  2  3  4  0
  3  4  4  0
  4  5  4  0
  5  6  4  0
  6  7  1  0
  6  8  4  0
  8  2  4  0
M  END
$$$$

     RDKit          3D

  8  8  0  0  0  0  0  0  0  0999 V2000
   -1.2899    0.7572   -2.5256 F   0  0  0  0  0  0  0  0  0  0  0  0
   -0.6635    0.3688   -1.3855 C   0  0  0  0  0  0  0  0  0  0  0  0
    0.7316    0.2814   -1.3725 C   0  0  0  0  0  0  0  0  0  0  0  0
    1.4128   -0.0958   -0.2035 C   0  0  0  0  0  0  0  0  0  0  0  0
    0.6728   -0.3763    0.9568 C   0  0  0  0  0  0  0  0  0  0  0  0
   -0.7224   -0.2902    0.9486 C   0  0  0  0  0  0  0  0  0  0  0  0
   -1.4093   -0.6041    2.0767 F   0  0  0  0  0  0  0  0  0  0  0  0
   -1.4032    0.0863   -0.2232 C   0  0  0  0  0  0  0  0  0  0  0  0
  1  2  1  0
  2  3  4  0
  3  4  4  0
  4  5  4  0
  5  6  4  0
  6  7  1  0
  6  8  4  0
  8  2  4  0
M  END
$$$$

     RDKit          3D

  8  8  0  0  0  0  0  0  0  0999 V2000
   -1.2548    1.4261    1.9418 F   0  0  0  0  0  0  0  0  0  0  0  0
   -0.6469    0.7032    0.9668 C   0  0  0  0  0  0  0  0  0  0  0  0
    0.7452    0.5770    0.9826 C   0  0  0  0  0  0  0  0  0  0  0  0
    1.4088   -0.1434   -0.0241 C   0  0  0  0  0  0  0  0  0  0  0  0
    0.6548   -0.7254   -1.0563 C   0  0  0  0  0  0  0  0  0  0  0  0
   -0.7373   -0.6005   -1.0773 C   0  0  0  0  0  0  0  0  0  0  0  0
   -1.4379   -1.1901   -2.0795 F   0  0  0  0  0  0  0  0  0  0  0  0
   -1.4014    0.1108   -0.0618 C   0  0  0  0  0  0  0  0  0  0  0  0
  1  2  1  0
  2  3  4  0
  3  4  4  0
  4  5  4  0
  5  6  4  0
  6  7  1  0
  6  8  4  0
  8  2  4  0
M  END
$$$$

     RDKit          3D

  8  8  0  0  0  0  0  0  0  0999 V2000
   -1.2264   -2.4501   -0.2714 F   0  0  0  0  0  0  0  0  0  0  0  0
   -0.6308   -1.2376   -0.1366 C   0  0  0  0  0  0  0  0  0  0  0  0
    0.7576   -1.1754    0.0139 C   0  0  0  0  0  0  0  0  0  0  0  0
    1.4079    0.0633    0.1376 C   0  0  0  0  0  0  0  0  0  0  0  0
    0.6421    1.2406    0.1194 C   0  0  0  0  0  0  0  0  0  0  0  0
   -0.7463    1.1835   -0.0326 C   0  0  0  0  0  0  0  0  0  0  0  0
   -1.4592    2.3387   -0.0222 F   0  0  0  0  0  0  0  0  0  0  0  0
   -1.3950   -0.0573   -0.1669 C   0  0  0  0  0  0  0  0  0  0  0  0
  1  2  1  0
  2  3  4  0
  3  4  4  0
  4  5  4  0
  5  6  4  0
  6  7  1  0
  6  8  4  0
  8  2  4  0
M  END
$$$$

     RDKit          3D

  8  8  0  0  0  0  0  0  0  0999 V2000
   -1.1282   -1.3964   -2.0505 F   0  0  0  0  0  0  0  0  0  0  0  0
   -0.5808   -0.7028   -1.0198 C   0  0  0  0  0  0  0  0  0  0  0  0
    0.8111   -0.6345   -0.9097 C   0  0  0  0  0  0  0  0  0  0  0  0
    1.4103    0.0592    0.1544 C   0  0  0  0  0  0  0  0  0  0  0  0
    0.5910    0.6943    1.1021 C   0  0  0  0  0  0  0  0  0  0  0  0
   -0.8013    0.6273    0.9972 C   0  0  0  0  0  0  0  0  0  0  0  0
   -1.5640    1.2721    1.9167 F   0  0  0  0  0  0  0  0  0  0  0  0
   -1.3999   -0.0767   -0.0632 C   0  0  0  0  0  0  0  0  0  0  0  0
  1  2  1  0
  2  3  4  0
  3  4  4  0
  4  5  4  0
  5  6  4  0
  6  7  1  0
  6  8  4  0
  8  2  4  0
M  END
$$$$

     RDKit          3D

  8  8  0  0  0  0  0  0  0  0999 V2000
   -1.2635    2.0981    1.1171 F   0  0  0  0  0  0  0  0  0  0  0  0
   -0.6488    1.0174    0.5720 C   0  0  0  0  0  0  0  0  0  0  0  0
    0.7440    1.0155    0.4535 C   0  0  0  0  0  0  0  0  0  0  0  0
    1.4110   -0.0806   -0.1176 C   0  0  0  0  0  0  0  0  0  0  0  0
    0.6579   -1.1733   -0.5777 C   0  0  0  0  0  0  0  0  0  0  0  0
   -0.7353   -1.1752   -0.4629 C   0  0  0  0  0  0  0  0  0  0  0  0
   -1.4310   -2.2592   -0.8917 F   0  0  0  0  0  0  0  0  0  0  0  0
   -1.4016   -0.0776    0.1113 C   0  0  0  0  0  0  0  0  0  0  0  0
  1  2  1  0
  2  3  4  0
  3  4  4  0
  4  5  4  0
  5  6  4  0
  6  7  1  0
  6  8  4  0
  8  2  4  0
M  END
$$$$

     RDKit          3D

  8  8  0  0  0  0  0  0  0  0999 V2000
   -1.4956   -2.2845    0.4272 F   0  0  0  0  0  0  0  0  0  0  0  0
   -0.7669   -1.1585    0.2174 C   0  0  0  0  0  0  0  0  0  0  0  0
    0.6285   -1.2377    0.2440 C   0  0  0  0  0  0  0  0  0  0  0  0
    1.4129   -0.0872    0.0598 C   0  0  0  0  0  0  0  0  0  0  0  0
    0.7756    1.1451   -0.1594 C   0  0  0  0  0  0  0  0  0  0  0  0
   -0.6194    1.2295   -0.1851 C   0  0  0  0  0  0  0  0  0  0  0  0
   -1.2039    2.4335   -0.4123 F   0  0  0  0  0  0  0  0  0  0  0  0
   -1.4036    0.0767   -0.0001 C   0  0  0  0  0  0  0  0  0  0  0  0
  1  2  1  0
  2  3  4  0
  3  4  4  0
  4  5  4  0
  5  6  4  0
  6  7  1  0
  6  8  4  0
  8  2  4  0
M  END
$$$$

     RDKit          3D

  8  8  0  0  0  0  0  0  0  0999 V2000
    1.1069    1.8339   -1.8505 F   0  0  0  0  0  0  0  0  0  0  0  0
    0.5693    0.9361   -0.9857 C   0  0  0  0  0  0  0  0  0  0  0  0
   -0.8154    0.7447   -0.9790 C   0  0  0  0  0  0  0  0  0  0  0  0
   -1.4022   -0.1969   -0.1177 C   0  0  0  0  0  0  0  0  0  0  0  0
   -0.5785   -0.9399    0.7437 C   0  0  0  0  0  0  0  0  0  0  0  0
    0.8068   -0.7532    0.7393 C   0  0  0  0  0  0  0  0  0  0  0  0
    1.5733   -1.4782    1.5937 F   0  0  0  0  0  0  0  0  0  0  0  0
    1.3930    0.1897   -0.1238 C   0  0  0  0  0  0  0  0  0  0  0  0
  1  2  1  0
  2  3  4  0
  3  4  4  0
  4  5  4  0
  5  6  4  0
  6  7  1  0
  6  8  4  0
  8  2  4  0
M  END
$$$$

     RDKit          3D

  8  8  0  0  0  0  0  0  0  0999 V2000
    1.1912    2.2953    0.9123 F   0  0  0  0  0  0  0  0  0  0  0  0
    0.6124    1.1558    0.4547 C   0  0  0  0  0  0  0  0  0  0  0  0
   -0.7814    1.0870    0.3723 C   0  0  0  0  0  0  0  0  0  0  0  0
   -1.4122   -0.0718   -0.1091 C   0  0  0  0  0  0  0  0  0  0  0  0
   -0.6224   -1.1595   -0.5162 C   0  0  0  0  0  0  0  0  0  0  0  0
    0.7718   -1.0947   -0.4373 C   0  0  0  0  0  0  0  0  0  0  0  0
    1.5046   -2.1743   -0.8122 F   0  0  0  0  0  0  0  0  0  0  0  0
    1.4019    0.0657    0.0471 C   0  0  0  0  0  0  0  0  0  0  0  0
  1  2  1  0
  2  3  4  0
  3  4  4  0
  4  5  4  0
  5  6  4  0
  6  7  1  0
  6  8  4  0
  8  2  4  0
M  END
$$$$

     RDKit          3D

  8  8  0  0  0  0  0  0  0  0999 V2000
    1.3775    2.3814   -0.0034 F   0  0  0  0  0  0  0  0  0  0  0  0
    0.7098    1.2023    0.0777 C   0  0  0  0  0  0  0  0  0  0  0  0
   -0.6877    1.2141    0.0482 C   0  0  0  0  0  0  0  0  0  0  0  0
   -1.4162    0.0134    0.0837 C   0  0  0  0  0  0  0  0  0  0  0  0
   -0.7180   -1.2065    0.1555 C   0  0  0  0  0  0  0  0  0  0  0  0
   -1.3856   -2.3856    0.2368 F   0  0  0  0  0  0  0  0  0  0  0  0
    0.6795   -1.2183    0.1850 C   0  0  0  0  0  0  0  0  0  0  0  0
    1.4080   -0.0176    0.1494 C   0  0  0  0  0  0  0  0  0  0  0  0
  1  2  1  0
  2  3  4  0
  3  4  4  0
  4  5  4  0
  5  6  1  0
  5  7  4  0
  7  8  4  0
  8  2  4  0
M  END
$$$$

     RDKit          3D

  8  8  0  0  0  0  0  0  0  0999 V2000
    1.3737   -2.1708   -0.7975 F   0  0  0  0  0  0  0  0  0  0  0  0
    0.7099   -1.0613   -0.3841 C   0  0  0  0  0  0  0  0  0  0  0  0
   -0.6834   -1.1069   -0.2816 C   0  0  0  0  0  0  0  0  0  0  0  0
   -1.4125    0.0323    0.0986 C   0  0  0  0  0  0  0  0  0  0  0  0
   -0.7185    1.2235    0.3817 C   0  0  0  0  0  0  0  0  0  0  0  0
   -1.3822    2.3330    0.7954 F   0  0  0  0  0  0  0  0  0  0  0  0
    0.6749    1.2691    0.2792 C   0  0  0  0  0  0  0  0  0  0  0  0
    1.4039    0.1299   -0.1010 C   0  0  0  0  0  0  0  0  0  0  0  0
  1  2  1  0
  2  3  4  0
  3  4  4  0
  4  5  4  0
  5  6  1  0
  5  7  4  0
  7  8  4  0
  8  2  4  0
M  END
$$$$

     RDKit          3D

  8  8  0  0  0  0  0  0  0  0999 V2000
    1.3878   -0.4146   -2.2405 F   0  0  0  0  0  0  0  0  0  0  0  0
    0.7166   -0.2275   -1.0755 C   0  0  0  0  0  0  0  0  0  0  0  0
   -0.6788   -0.3101   -1.0794 C   0  0  0  0  0  0  0  0  0  0  0  0
   -1.4145   -0.0782    0.0948 C   0  0  0  0  0  0  0  0  0  0  0  0
   -0.7252    0.2340    1.2814 C   0  0  0  0  0  0  0  0  0  0  0  0
   -1.3964    0.4211    2.4464 F   0  0  0  0  0  0  0  0  0  0  0  0
    0.6702    0.3166    1.2853 C   0  0  0  0  0  0  0  0  0  0  0  0
    1.4059    0.0847    0.1111 C   0  0  0  0  0  0  0  0  0  0  0  0
  1  2  1  0
  2  3  4  0
  3  4  4  0
  4  5  4  0
  5  6  1  0
  5  7  4  0
  7  8  4  0
  8  2  4  0
M  END
$$$$

     RDKit          3D

  8  8  0  0  0  0  0  0  0  0999 V2000
   -1.3456    0.1846    2.3208 F   0  0  0  0  0  0  0  0  0  0  0  0
   -0.6948    0.1123    1.1317 C   0  0  0  0  0  0  0  0  0  0  0  0
    0.7021    0.1613    1.1222 C   0  0  0  0  0  0  0  0  0  0  0  0
    1.4160    0.0440   -0.0820 C   0  0  0  0  0  0  0  0  0  0  0  0
    0.7032   -0.1185   -1.2847 C   0  0  0  0  0  0  0  0  0  0  0  0
    1.3539   -0.1907   -2.4738 F   0  0  0  0  0  0  0  0  0  0  0  0
   -0.6937   -0.1675   -1.2752 C   0  0  0  0  0  0  0  0  0  0  0  0
   -1.4076   -0.0502   -0.0710 C   0  0  0  0  0  0  0  0  0  0  0  0
  1  2  1  0
  2  3  4  0
  3  4  4  0
  4  5  4  0
  5  6  1  0
  5  7  4  0
  7  8  4  0
  8  2  4  0
M  END
$$$$

     RDKit          3D

  8  8  0  0  0  0  0  0  0  0999 V2000
   -1.0687   -2.1304    1.1204 F   0  0  0  0  0  0  0  0  0  0  0  0
   -0.5556   -1.0120    0.5472 C   0  0  0  0  0  0  0  0  0  0  0  0
    0.8303   -0.9032    0.4007 C   0  0  0  0  0  0  0  0  0  0  0  0
    1.4052    0.2564   -0.1456 C   0  0  0  0  0  0  0  0  0  0  0  0
    0.5637    1.3094   -0.5505 C   0  0  0  0  0  0  0  0  0  0  0  0
    1.0768    2.4278   -1.1238 F   0  0  0  0  0  0  0  0  0  0  0  0
   -0.8221    1.2006   -0.4040 C   0  0  0  0  0  0  0  0  0  0  0  0
   -1.3970    0.0410    0.1423 C   0  0  0  0  0  0  0  0  0  0  0  0
  1  2  1  0
  2  3  4  0
  3  4  4  0
  4  5  4  0
  5  6  1  0
  5  7  4  0
  7  8  4  0
  8  2  4  0
M  END
$$$$

     RDKit          3D

  8  8  0  0  0  0  0  0  0  0999 V2000
   -1.4068   -2.3635   -0.3514 F   0  0  0  0  0  0  0  0  0  0  0  0
   -0.7253   -1.1912   -0.2887 C   0  0  0  0  0  0  0  0  0  0  0  0
    0.6712   -1.2180   -0.3442 C   0  0  0  0  0  0  0  0  0  0  0  0
    1.4157   -0.0303   -0.2510 C   0  0  0  0  0  0  0  0  0  0  0  0
    0.7351    1.1906   -0.0869 C   0  0  0  0  0  0  0  0  0  0  0  0
    1.4195    2.3548    0.0511 F   0  0  0  0  0  0  0  0  0  0  0  0
   -0.6613    1.2172   -0.0292 C   0  0  0  0  0  0  0  0  0  0  0  0
   -1.4063    0.0309   -0.1358 C   0  0  0  0  0  0  0  0  0  0  0  0
  1  2  1  0
  2  3  4  0
  3  4  4  0
  4  5  4  0
  5  6  1  0
  5  7  4  0
  7  8  4  0
  8  2  4  0
M  END
$$$$

     RDKit          3D

  8  8  0  0  0  0  0  0  0  0999 V2000
    1.2242    2.3624   -0.8437 F   0  0  0  0  0  0  0  0  0  0  0  0
    0.6326    1.1914   -0.4953 C   0  0  0  0  0  0  0  0  0  0  0  0
   -0.7632    1.1226   -0.4648 C   0  0  0  0  0  0  0  0  0  0  0  0
   -1.4148   -0.0608   -0.0794 C   0  0  0  0  0  0  0  0  0  0  0  0
   -0.6409   -1.1768    0.2900 C   0  0  0  0  0  0  0  0  0  0  0  0
   -1.2320   -2.3242    0.7102 F   0  0  0  0  0  0  0  0  0  0  0  0
    0.7550   -1.1073    0.2614 C   0  0  0  0  0  0  0  0  0  0  0  0
    1.4065    0.0719   -0.1367 C   0  0  0  0  0  0  0  0  0  0  0  0
  1  2  1  0
  2  3  4  0
  3  4  4  0
  4  5  4  0
  5  6  1  0
  5  7  4  0
  7  8  4  0
  8  2  4  0
M  END
$$$$

     RDKit          3D

  8  8  0  0  0  0  0  0  0  0999 V2000
   -1.3904   -0.6862    2.2307 F   0  0  0  0  0  0  0  0  0  0  0  0
   -0.7178   -0.3366    1.1047 C   0  0  0  0  0  0  0  0  0  0  0  0
    0.6732   -0.2104    1.1604 C   0  0  0  0  0  0  0  0  0  0  0  0
    1.4103    0.1189    0.0107 C   0  0  0  0  0  0  0  0  0  0  0  0
    0.7286    0.3080   -1.2060 C   0  0  0  0  0  0  0  0  0  0  0  0
    1.4085    0.5843   -2.3479 F   0  0  0  0  0  0  0  0  0  0  0  0
   -0.6622    0.1798   -1.2622 C   0  0  0  0  0  0  0  0  0  0  0  0
   -1.4006   -0.1365   -0.1096 C   0  0  0  0  0  0  0  0  0  0  0  0
  1  2  1  0
  2  3  4  0
  3  4  4  0
  4  5  4  0
  5  6  1  0
  5  7  4  0
  7  8  4  0
  8  2  4  0
M  END
$$$$

     RDKit          3D

  8  8  0  0  0  0  0  0  0  0999 V2000
   -1.3121   -2.4070   -0.2682 F   0  0  0  0  0  0  0  0  0  0  0  0
   -0.6769   -1.2150   -0.1330 C   0  0  0  0  0  0  0  0  0  0  0  0
    0.7202   -1.1953   -0.0899 C   0  0  0  0  0  0  0  0  0  0  0  0
    1.4156    0.0134    0.0805 C   0  0  0  0  0  0  0  0  0  0  0  0
    0.6842    1.2075    0.2210 C   0  0  0  0  0  0  0  0  0  0  0  0
    1.3173    2.3898    0.4311 F   0  0  0  0  0  0  0  0  0  0  0  0
   -0.7129    1.1875    0.1800 C   0  0  0  0  0  0  0  0  0  0  0  0
   -1.4080   -0.0195   -0.0036 C   0  0  0  0  0  0  0  0  0  0  0  0
  1  2  1  0
  2  3  4  0
  3  4  4  0
  4  5  4  0
  5  6  1  0
  5  7  4  0
  7  8  4  0
  8  2  4  0
M  END
$$$$

     RDKit          3D

  8  8  0  0  0  0  0  0  0  0999 V2000
   -1.3015    1.7365    1.7299 F   0  0  0  0  0  0  0  0  0  0  0  0
   -0.6708    0.8873    0.8792 C   0  0  0  0  0  0  0  0  0  0  0  0
    0.7233    0.7963    0.9259 C   0  0  0  0  0  0  0  0  0  0  0  0
    1.4118   -0.1030    0.0948 C   0  0  0  0  0  0  0  0  0  0  0  0
    0.6772   -0.9106   -0.7934 C   0  0  0  0  0  0  0  0  0  0  0  0
    1.3078   -1.7597   -1.6441 F   0  0  0  0  0  0  0  0  0  0  0  0
   -0.7169   -0.8196   -0.8401 C   0  0  0  0  0  0  0  0  0  0  0  0
   -1.4055    0.0797   -0.0090 C   0  0  0  0  0  0  0  0  0  0  0  0
  1  2  1  0
  2  3  4  0
  3  4  4  0
  4  5  4  0
  5  6  1  0
  5  7  4  0
  7  8  4  0
  8  2  4  0
M  END
$$$$

     RDKit          3D

  8  8  0  0  0  0  0  0  0  0999 V2000
   -1.3387   -0.0960    2.2386 F   0  0  0  0  0  0  0  0  0  0  0  0
   -0.6882   -0.0269    1.0492 C   0  0  0  0  0  0  0  0  0  0  0  0
    0.6989   -0.1987    1.0270 C   0  0  0  0  0  0  0  0  0  0  0  0
    1.4048   -0.1800   -0.1875 C   0  0  0  0  0  0  0  0  0  0  0  0
    0.6951    0.0204   -1.3862 C   0  0  0  0  0  0  0  0  0  0  0  0
    1.3455    0.0895   -2.5757 F   0  0  0  0  0  0  0  0  0  0  0  0
   -0.6920    0.1922   -1.3641 C   0  0  0  0  0  0  0  0  0  0  0  0
   -1.3979    0.1735   -0.1496 C   0  0  0  0  0  0  0  0  0  0  0  0
  1  2  1  0
  2  3  4  0
  3  4  4  0
  4  5  4  0
  5  6  1  0
  5  7  4  0
  7  8  4  0
  8  2  4  0
M  END
$$$$

     RDKit          3D

  8  8  0  0  0  0  0  0  0  0999 V2000
    1.4613   -0.7587    2.1915 F   0  0  0  0  0  0  0  0  0  0  0  0
    0.7528   -0.3889    1.0942 C   0  0  0  0  0  0  0  0  0  0  0  0
   -0.6432   -0.4417    1.1422 C   0  0  0  0  0  0  0  0  0  0  0  0
   -1.4146   -0.0381    0.0396 C   0  0  0  0  0  0  0  0  0  0  0  0
   -0.7614    0.4346   -1.1139 C   0  0  0  0  0  0  0  0  0  0  0  0
   -1.4715    0.8748   -2.1837 F   0  0  0  0  0  0  0  0  0  0  0  0
    0.6346    0.4894   -1.1611 C   0  0  0  0  0  0  0  0  0  0  0  0
    1.4063    0.0733   -0.0634 C   0  0  0  0  0  0  0  0  0  0  0  0
  1  2  1  0
  2  3  4  0
  3  4  4  0
  4  5  4  0
  5  6  1  0
  5  7  4  0
  7  8  4  0
  8  2  4  0
M  END
$$$$

     RDKit          3D

  8  8  0  0  0  0  0  0  0  0999 V2000
    1.2785   -1.6059   -1.7693 F   0  0  0  0  0  0  0  0  0  0  0  0
    0.6603   -0.8175   -0.8534 C   0  0  0  0  0  0  0  0  0  0  0  0
   -0.7368   -0.7767   -0.8305 C   0  0  0  0  0  0  0  0  0  0  0  0
   -1.4155    0.0499    0.0804 C   0  0  0  0  0  0  0  0  0  0  0  0
   -0.6673    0.8496    0.9645 C   0  0  0  0  0  0  0  0  0  0  0  0
   -1.2848    1.6939    1.8297 F   0  0  0  0  0  0  0  0  0  0  0  0
    0.7297    0.8103    0.9402 C   0  0  0  0  0  0  0  0  0  0  0  0
    1.4083   -0.0261    0.0382 C   0  0  0  0  0  0  0  0  0  0  0  0
  1  2  1  0
  2  3  4  0
  3  4  4  0
  4  5  4  0
  5  6  1  0
  5  7  4  0
  7  8  4  0
  8  2  4  0
M  END
$$$$
