
     RDKit          3D

  6  6  0  0  0  0  0  0  0  0999 V2000
   -0.6541    0.3064    1.2198 N   0  0  0  0  0  0  0  0  0  0  0  0
    0.6747    0.2159    1.2321 N   0  0  0  0  0  0  0  0  0  0  0  0
    1.3630   -0.0919    0.1023 C   0  0  0  0  0  0  0  0  0  0  0  0
    0.6606   -0.3049   -1.0405 N   0  0  0  0  0  0  0  0  0  0  0  0
   -0.6682   -0.2143   -1.0531 N   0  0  0  0  0  0  0  0  0  0  0  0
   -1.3562    0.0935    0.0772 C   0  0  0  0  0  0  0  0  0  0  0  0
  1  2  4  0
  2  3  4  0
  3  4  4  0
  4  5  4  0
  5  6  4  0
  6  1  4  0
M  END
$$$$

     RDKit          3D

  6  6  0  0  0  0  0  0  0  0999 V2000
    0.6650   -1.1313   -0.2285 N   0  0  0  0  0  0  0  0  0  0  0  0
   -0.6653   -1.1164   -0.2917 N   0  0  0  0  0  0  0  0  0  0  0  0
   -1.3646    0.0108    0.0004 C   0  0  0  0  0  0  0  0  0  0  0  0
   -0.6715    1.1226    0.3586 N   0  0  0  0  0  0  0  0  0  0  0  0
    0.6588    1.1080    0.4218 N   0  0  0  0  0  0  0  0  0  0  0  0
    1.3578   -0.0197    0.1296 C   0  0  0  0  0  0  0  0  0  0  0  0
  1  2  4  0
  2  3  4  0
  3  4  4  0
  4  5  4  0
  5  6  4  0
  6  1  4  0
M  END
$$$$

     RDKit          3D

  6  6  0  0  0  0  0  0  0  0999 V2000
    0.5163   -0.0506    1.2698 N   0  0  0  0  0  0  0  0  0  0  0  0
   -0.8052   -0.0086    1.1088 N   0  0  0  0  0  0  0  0  0  0  0  0
   -1.3550    0.0432   -0.1321 C   0  0  0  0  0  0  0  0  0  0  0  0
   -0.5217    0.0510   -1.2046 N   0  0  0  0  0  0  0  0  0  0  0  0
    0.7999    0.0090   -1.0440 N   0  0  0  0  0  0  0  0  0  0  0  0
    1.3494   -0.0428    0.1967 C   0  0  0  0  0  0  0  0  0  0  0  0
  1  2  4  0
  2  3  4  0
  3  4  4  0
  4  5  4  0
  5  6  4  0
  6  1  4  0
M  END
$$$$

     RDKit          3D

  6  6  0  0  0  0  0  0  0  0999 V2000
   -0.6891    1.1189   -0.0043 N   0  0  0  0  0  0  0  0  0  0  0  0
    0.6422    1.1426    0.0283 N   0  0  0  0  0  0  0  0  0  0  0  0
    1.3657    0.0201   -0.2192 C   0  0  0  0  0  0  0  0  0  0  0  0
    0.6958   -1.1274   -0.5009 N   0  0  0  0  0  0  0  0  0  0  0  0
   -0.6355   -1.1515   -0.5335 N   0  0  0  0  0  0  0  0  0  0  0  0
   -1.3587   -0.0291   -0.2860 C   0  0  0  0  0  0  0  0  0  0  0  0
  1  2  4  0
  2  3  4  0
  3  4  4  0
  4  5  4  0
  5  6  4  0
  6  1  4  0
M  END
$$$$

     RDKit          3D

  3  2  0  0  0  0  0  0  0  0999 V2000
   -0.0150    1.7361    0.6756 F   0  0  0  0  0  0  0  0  0  0  0  0
   -0.4484    0.5384    0.2026 C   0  0  0  0  0  0  0  0  0  0  0  0
    0.4400   -0.4301   -0.0773 C   0  0  0  0  0  0  0  0  0  0  0  0
  1  2  1  0
  2  3  2  0
M  END
$$$$

     RDKit          3D

  3  2  0  0  0  0  0  0  0  0999 V2000
   -0.0650    1.1653    1.4290 F   0  0  0  0  0  0  0  0  0  0  0  0
   -0.4635    0.3253    0.4382 C   0  0  0  0  0  0  0  0  0  0  0  0
    0.4519   -0.2382   -0.3681 C   0  0  0  0  0  0  0  0  0  0  0  0
  1  2  1  0
  2  3  2  0
M  END
$$$$

     RDKit          3D

  3  2  0  0  0  0  0  0  0  0999 V2000
    0.0598    1.3522    1.2342 F   0  0  0  0  0  0  0  0  0  0  0  0
   -0.4243    0.4265    0.3656 C   0  0  0  0  0  0  0  0  0  0  0  0
    0.4236   -0.3591   -0.3202 C   0  0  0  0  0  0  0  0  0  0  0  0
  1  2  1  0
  2  3  2  0
M  END
$$$$

     RDKit          3D

  3  2  0  0  0  0  0  0  0  0999 V2000
   -0.0410   -1.6638   -0.8304 F   0  0  0  0  0  0  0  0  0  0  0  0
   -0.4532   -0.5165   -0.2308 C   0  0  0  0  0  0  0  0  0  0  0  0
    0.4466    0.4168    0.1236 C   0  0  0  0  0  0  0  0  0  0  0  0
  1  2  1  0
  2  3  2  0
M  END
$$$$

     RDKit          3D

  3  2  0  0  0  0  0  0  0  0999 V2000
   -0.1511   -1.1863    1.2390 F   0  0  0  0  0  0  0  0  0  0  0  0
   -0.4827   -0.3984    0.1828 C   0  0  0  0  0  0  0  0  0  0  0  0
    0.4687    0.2973   -0.4608 C   0  0  0  0  0  0  0  0  0  0  0  0
  1  2  1  0
  2  3  2  0
M  END
$$$$

     RDKit          3D

  3  2  0  0  0  0  0  0  0  0999 V2000
    0.0587    1.7294   -0.7609 F   0  0  0  0  0  0  0  0  0  0  0  0
   -0.4252    0.5171   -0.3836 C   0  0  0  0  0  0  0  0  0  0  0  0
    0.4201   -0.4540   -0.0015 C   0  0  0  0  0  0  0  0  0  0  0  0
  1  2  1  0
  2  3  2  0
M  END
$$$$

     RDKit          3D

  3  2  0  0  0  0  0  0  0  0999 V2000
    0.0319   -1.4181   -1.1746 F   0  0  0  0  0  0  0  0  0  0  0  0
   -0.4201   -0.3584   -0.4542 C   0  0  0  0  0  0  0  0  0  0  0  0
    0.4234    0.3248    0.3365 C   0  0  0  0  0  0  0  0  0  0  0  0
  1  2  1  0
  2  3  2  0
M  END
$$$$

     RDKit          3D

  3  2  0  0  0  0  0  0  0  0999 V2000
   -0.0642   -1.3966   -1.0964 F   0  0  0  0  0  0  0  0  0  0  0  0
   -0.4624   -0.4138   -0.2465 C   0  0  0  0  0  0  0  0  0  0  0  0
    0.4599    0.3408    0.3724 C   0  0  0  0  0  0  0  0  0  0  0  0
  1  2  1  0
  2  3  2  0
M  END
$$$$

     RDKit          3D

  3  2  0  0  0  0  0  0  0  0999 V2000
   -0.0372   -1.7537    0.4454 F   0  0  0  0  0  0  0  0  0  0  0  0
   -0.4533   -0.5291    0.0301 C   0  0  0  0  0  0  0  0  0  0  0  0
    0.4394    0.4458   -0.2082 C   0  0  0  0  0  0  0  0  0  0  0  0
  1  2  1  0
  2  3  2  0
M  END
$$$$

     RDKit          3D

  3  2  0  0  0  0  0  0  0  0999 V2000
   -0.0361   -1.5229    1.1220 F   0  0  0  0  0  0  0  0  0  0  0  0
    0.4309   -0.4681    0.4047 C   0  0  0  0  0  0  0  0  0  0  0  0
   -0.4228    0.4235   -0.1247 C   0  0  0  0  0  0  0  0  0  0  0  0
  1  2  1  0
  2  3  2  0
M  END
$$$$

     RDKit          3D

  3  2  0  0  0  0  0  0  0  0999 V2000
    0.0388    1.7058    0.6998 F   0  0  0  0  0  0  0  0  0  0  0  0
    0.4539    0.5090    0.2094 C   0  0  0  0  0  0  0  0  0  0  0  0
   -0.4421   -0.4304   -0.1352 C   0  0  0  0  0  0  0  0  0  0  0  0
  1  2  1  0
  2  3  2  0
M  END
$$$$

     RDKit          3D

  3  2  0  0  0  0  0  0  0  0999 V2000
    0.0310   -1.3643   -1.1288 F   0  0  0  0  0  0  0  0  0  0  0  0
   -0.4311   -0.4542   -0.2315 C   0  0  0  0  0  0  0  0  0  0  0  0
    0.4324    0.3535    0.4031 C   0  0  0  0  0  0  0  0  0  0  0  0
  1  2  1  0
  2  3  2  0
M  END
$$$$

     RDKit          3D

  3  2  0  0  0  0  0  0  0  0999 V2000
   -0.0876   -1.4744    1.0568 F   0  0  0  0  0  0  0  0  0  0  0  0
   -0.4646   -0.3963    0.3209 C   0  0  0  0  0  0  0  0  0  0  0  0
    0.4632    0.3665   -0.2778 C   0  0  0  0  0  0  0  0  0  0  0  0
  1  2  1  0
  2  3  2  0
M  END
$$$$

     RDKit          3D

  3  2  0  0  0  0  0  0  0  0999 V2000
    0.9793   -3.8756    0.7714 F   0  0  0  0  0  0  0  0  0  0  0  0
    0.4590   -2.6416    0.5502 C   0  0  0  0  0  0  0  0  0  0  0  0
   -0.8781   -2.5093    0.5661 C   0  0  0  0  0  0  0  0  0  0  0  0
  1  2  1  0
  2  3  2  0
M  END
$$$$

     RDKit          3D

  3  2  0  0  0  0  0  0  0  0999 V2000
   -1.4406   -3.5699   -0.8448 F   0  0  0  0  0  0  0  0  0  0  0  0
   -0.7675   -2.4270   -0.5579 C   0  0  0  0  0  0  0  0  0  0  0  0
    0.5743   -2.4497   -0.6179 C   0  0  0  0  0  0  0  0  0  0  0  0
  1  2  1  0
  2  3  2  0
M  END
$$$$

     RDKit          3D

  4  3  0  0  0  0  0  0  0  0999 V2000
   -0.0721   -0.1550   -1.6712 F   0  0  0  0  0  0  0  0  0  0  0  0
   -0.4607   -0.0048   -0.3775 C   0  0  0  0  0  0  0  0  0  0  0  0
    0.4573   -0.0497    0.6061 C   0  0  0  0  0  0  0  0  0  0  0  0
    0.0552   -0.1214    1.9024 F   0  0  0  0  0  0  0  0  0  0  0  0
  1  2  1  0
  2  3  2  0
  3  4  1  0
M  END
$$$$

     RDKit          3D

  4  3  0  0  0  0  0  0  0  0999 V2000
   -0.0376   -0.0723   -1.8055 F   0  0  0  0  0  0  0  0  0  0  0  0
   -0.4525   -0.0650   -0.5113 C   0  0  0  0  0  0  0  0  0  0  0  0
    0.4466    0.0912    0.4785 C   0  0  0  0  0  0  0  0  0  0  0  0
    0.0199    0.3192    1.7485 F   0  0  0  0  0  0  0  0  0  0  0  0
  1  2  1  0
  2  3  2  0
  3  4  1  0
M  END
$$$$

     RDKit          3D

  4  3  0  0  0  0  0  0  0  0999 V2000
    0.1309   -0.7866   -1.4542 F   0  0  0  0  0  0  0  0  0  0  0  0
    0.4716   -0.1466   -0.3047 C   0  0  0  0  0  0  0  0  0  0  0  0
   -0.4743    0.1301    0.6124 C   0  0  0  0  0  0  0  0  0  0  0  0
   -0.1106    0.5659    1.8473 F   0  0  0  0  0  0  0  0  0  0  0  0
  1  2  1  0
  2  3  2  0
  3  4  1  0
M  END
$$$$

     RDKit          3D

  4  3  0  0  0  0  0  0  0  0999 V2000
   -0.0271   -1.6941   -0.6290 F   0  0  0  0  0  0  0  0  0  0  0  0
   -0.4515   -0.4790   -0.1927 C   0  0  0  0  0  0  0  0  0  0  0  0
    0.4477    0.4395    0.2077 C   0  0  0  0  0  0  0  0  0  0  0  0
    0.0268    1.5628    0.8465 F   0  0  0  0  0  0  0  0  0  0  0  0
  1  2  1  0
  2  3  2  0
  3  4  1  0
M  END
$$$$

     RDKit          3D

  4  3  0  0  0  0  0  0  0  0999 V2000
    0.0338   -0.3110    1.7498 F   0  0  0  0  0  0  0  0  0  0  0  0
    0.4403    0.0076    0.4927 C   0  0  0  0  0  0  0  0  0  0  0  0
   -0.4393   -0.0343   -0.5256 C   0  0  0  0  0  0  0  0  0  0  0  0
    0.0047    0.0664   -1.8061 F   0  0  0  0  0  0  0  0  0  0  0  0
  1  2  1  0
  2  3  2  0
  3  4  1  0
M  END
$$$$

     RDKit          3D

  4  3  0  0  0  0  0  0  0  0999 V2000
    0.2288    1.2084   -1.4236 F   0  0  0  0  0  0  0  0  0  0  0  0
   -0.3726    0.4121   -0.5009 C   0  0  0  0  0  0  0  0  0  0  0  0
    0.3724   -0.4156    0.2556 C   0  0  0  0  0  0  0  0  0  0  0  0
   -0.2341   -1.3643    1.0166 F   0  0  0  0  0  0  0  0  0  0  0  0
  1  2  1  0
  2  3  2  0
  3  4  1  0
M  END
$$$$

     RDKit          3D

  4  3  0  0  0  0  0  0  0  0999 V2000
   -0.0219    0.9068    1.5842 F   0  0  0  0  0  0  0  0  0  0  0  0
    0.4368    0.2623    0.4791 C   0  0  0  0  0  0  0  0  0  0  0  0
   -0.4372   -0.2579   -0.4029 C   0  0  0  0  0  0  0  0  0  0  0  0
    0.0047   -0.7047   -1.6080 F   0  0  0  0  0  0  0  0  0  0  0  0
  1  2  1  0
  2  3  2  0
  3  4  1  0
M  END
$$$$

     RDKit          3D

  4  3  0  0  0  0  0  0  0  0999 V2000
   -0.1963   -1.6318   -0.6550 F   0  0  0  0  0  0  0  0  0  0  0  0
   -0.4944   -0.4158   -0.1274 C   0  0  0  0  0  0  0  0  0  0  0  0
    0.4944    0.4158    0.2523 C   0  0  0  0  0  0  0  0  0  0  0  0
    0.1963    1.6318    0.7798 F   0  0  0  0  0  0  0  0  0  0  0  0
  1  2  1  0
  2  3  2  0
  3  4  1  0
M  END
$$$$

     RDKit          3D

  4  3  0  0  0  0  0  0  0  0999 V2000
    0.0137   -0.6591    1.7730 F   0  0  0  0  0  0  0  0  0  0  0  0
   -0.4316   -0.2552    0.5547 C   0  0  0  0  0  0  0  0  0  0  0  0
    0.4316    0.2552   -0.3441 C   0  0  0  0  0  0  0  0  0  0  0  0
   -0.0137    0.6591   -1.5625 F   0  0  0  0  0  0  0  0  0  0  0  0
  1  2  1  0
  2  3  2  0
  3  4  1  0
M  END
$$$$

     RDKit          3D

  4  3  0  0  0  0  0  0  0  0999 V2000
   -0.2927   -1.4164   -1.1463 F   0  0  0  0  0  0  0  0  0  0  0  0
   -0.5209   -0.3687   -0.3119 C   0  0  0  0  0  0  0  0  0  0  0  0
    0.5138    0.3304    0.1921 C   0  0  0  0  0  0  0  0  0  0  0  0
    0.2855    1.3780    1.0266 F   0  0  0  0  0  0  0  0  0  0  0  0
  1  2  1  0
  2  3  2  0
  3  4  1  0
M  END
$$$$

     RDKit          3D

  4  3  0  0  0  0  0  0  0  0999 V2000
   -0.1056    1.4309    1.0466 F   0  0  0  0  0  0  0  0  0  0  0  0
   -0.4655    0.4053    0.2313 C   0  0  0  0  0  0  0  0  0  0  0  0
    0.4732   -0.4206   -0.2687 C   0  0  0  0  0  0  0  0  0  0  0  0
    0.1134   -1.4460   -1.0840 F   0  0  0  0  0  0  0  0  0  0  0  0
  1  2  1  0
  2  3  2  0
  3  4  1  0
M  END
$$$$

     RDKit          3D

  4  3  0  0  0  0  0  0  0  0999 V2000
   -0.3241    1.4760    1.0383 F   0  0  0  0  0  0  0  0  0  0  0  0
   -0.5213    0.3620    0.2860 C   0  0  0  0  0  0  0  0  0  0  0  0
    0.5272   -0.4001   -0.0789 C   0  0  0  0  0  0  0  0  0  0  0  0
    0.3301   -1.5142   -0.8311 F   0  0  0  0  0  0  0  0  0  0  0  0
  1  2  1  0
  2  3  2  0
  3  4  1  0
M  END
$$$$

     RDKit          3D

  4  3  0  0  0  0  0  0  0  0999 V2000
    0.0157    0.9608    1.4852 F   0  0  0  0  0  0  0  0  0  0  0  0
    0.4378    0.3411    0.3523 C   0  0  0  0  0  0  0  0  0  0  0  0
   -0.4378   -0.3411   -0.4101 C   0  0  0  0  0  0  0  0  0  0  0  0
   -0.0157   -0.9608   -1.5430 F   0  0  0  0  0  0  0  0  0  0  0  0
  1  2  1  0
  2  3  2  0
  3  4  1  0
M  END
$$$$

     RDKit          3D

  4  3  0  0  0  0  0  0  0  0999 V2000
    1.4669   -2.9816    0.1702 F   0  0  0  0  0  0  0  0  0  0  0  0
    0.7617   -1.8232    0.1052 C   0  0  0  0  0  0  0  0  0  0  0  0
   -0.5398   -1.8911   -0.2285 C   0  0  0  0  0  0  0  0  0  0  0  0
   -1.1024   -3.1193   -0.3641 F   0  0  0  0  0  0  0  0  0  0  0  0
  1  2  1  0
  2  3  2  0
  3  4  1  0
M  END
$$$$
