
     RDKit          3D

  7  7  0  0  0  0  0  0  0  0999 V2000
    1.1198   -1.4559    2.0666 F   0  0  0  0  0  0  0  0  0  0  0  0
    0.5837   -0.7313    1.0516 C   0  0  0  0  0  0  0  0  0  0  0  0
    1.3964   -0.2427    0.0137 C   0  0  0  0  0  0  0  0  0  0  0  0
    0.8068    0.4771   -1.0368 C   0  0  0  0  0  0  0  0  0  0  0  0
   -0.5703    0.7132   -1.0488 C   0  0  0  0  0  0  0  0  0  0  0  0
   -1.3867    0.2301   -0.0114 C   0  0  0  0  0  0  0  0  0  0  0  0
   -0.7946   -0.4958    1.0374 C   0  0  0  0  0  0  0  0  0  0  0  0
  1  2  1  0
  2  3  4  0
  3  4  4  0
  4  5  4  0
  5  6  4  0
  6  7  4  0
  7  2  4  0
M  END
$$$$

     RDKit          3D

  7  7  0  0  0  0  0  0  0  0999 V2000
    1.5265    1.5560    1.8519 F   0  0  0  0  0  0  0  0  0  0  0  0
    0.7881    0.7950    1.0044 C   0  0  0  0  0  0  0  0  0  0  0  0
    1.4139   -0.0338    0.0567 C   0  0  0  0  0  0  0  0  0  0  0  0
    0.6226   -0.8312   -0.7844 C   0  0  0  0  0  0  0  0  0  0  0  0
   -0.7708   -0.7973   -0.6880 C   0  0  0  0  0  0  0  0  0  0  0  0
   -1.4015    0.0326    0.2553 C   0  0  0  0  0  0  0  0  0  0  0  0
   -0.6065    0.8265    1.1009 C   0  0  0  0  0  0  0  0  0  0  0  0
  1  2  1  0
  2  3  4  0
  3  4  4  0
  4  5  4  0
  5  6  4  0
  6  7  4  0
  7  2  4  0
M  END
$$$$

     RDKit          3D

  7  7  0  0  0  0  0  0  0  0999 V2000
   -1.3164    2.2277    1.0170 F   0  0  0  0  0  0  0  0  0  0  0  0
   -0.6825    1.1242    0.5445 C   0  0  0  0  0  0  0  0  0  0  0  0
   -1.4153    0.0592   -0.0081 C   0  0  0  0  0  0  0  0  0  0  0  0
   -0.7282   -1.0543   -0.5156 C   0  0  0  0  0  0  0  0  0  0  0  0
    0.6670   -1.1092   -0.4660 C   0  0  0  0  0  0  0  0  0  0  0  0
    1.4041   -0.0485    0.0890 C   0  0  0  0  0  0  0  0  0  0  0  0
    0.7139    1.0687    0.5918 C   0  0  0  0  0  0  0  0  0  0  0  0
  1  2  1  0
  2  3  4  0
  3  4  4  0
  4  5  4  0
  5  6  4  0
  6  7  4  0
  7  2  4  0
M  END
$$$$

     RDKit          3D

  7  7  0  0  0  0  0  0  0  0999 V2000
    1.1049    0.3973    2.4737 F   0  0  0  0  0  0  0  0  0  0  0  0
    0.5755    0.1961    1.2399 C   0  0  0  0  0  0  0  0  0  0  0  0
    1.3945    0.2166    0.0974 C   0  0  0  0  0  0  0  0  0  0  0  0
    0.8118    0.0355   -1.1663 C   0  0  0  0  0  0  0  0  0  0  0  0
   -0.5646   -0.1709   -1.2890 C   0  0  0  0  0  0  0  0  0  0  0  0
   -1.3874   -0.1961   -0.1493 C   0  0  0  0  0  0  0  0  0  0  0  0
   -0.8021   -0.0087    1.1155 C   0  0  0  0  0  0  0  0  0  0  0  0
  1  2  1  0
  2  3  4  0
  3  4  4  0
  4  5  4  0
  5  6  4  0
  6  7  4  0
  7  2  4  0
M  END
$$$$

     RDKit          3D

  7  7  0  0  0  0  0  0  0  0999 V2000
    1.5243    2.2027   -0.6065 F   0  0  0  0  0  0  0  0  0  0  0  0
    0.7873    1.1171   -0.2583 C   0  0  0  0  0  0  0  0  0  0  0  0
    1.4144   -0.0914    0.0920 C   0  0  0  0  0  0  0  0  0  0  0  0
    0.6236   -1.2040    0.4176 C   0  0  0  0  0  0  0  0  0  0  0  0
   -0.7705   -1.1116    0.4019 C   0  0  0  0  0  0  0  0  0  0  0  0
   -1.4023    0.0956    0.0559 C   0  0  0  0  0  0  0  0  0  0  0  0
   -0.6079    1.2076   -0.2754 C   0  0  0  0  0  0  0  0  0  0  0  0
  1  2  1  0
  2  3  4  0
  3  4  4  0
  4  5  4  0
  5  6  4  0
  6  7  4  0
  7  2  4  0
M  END
$$$$

     RDKit          3D

  7  7  0  0  0  0  0  0  0  0999 V2000
   -1.6495   -0.4986   -2.1875 F   0  0  0  0  0  0  0  0  0  0  0  0
   -0.8499   -0.2884   -1.1108 C   0  0  0  0  0  0  0  0  0  0  0  0
   -1.4040    0.0350    0.1401 C   0  0  0  0  0  0  0  0  0  0  0  0
   -0.5519    0.2162    1.2403 C   0  0  0  0  0  0  0  0  0  0  0  0
    0.8315    0.0849    1.0945 C   0  0  0  0  0  0  0  0  0  0  0  0
    1.3907   -0.2346   -0.1551 C   0  0  0  0  0  0  0  0  0  0  0  0
    0.5346   -0.4212   -1.2549 C   0  0  0  0  0  0  0  0  0  0  0  0
  1  2  1  0
  2  3  4  0
  3  4  4  0
  4  5  4  0
  5  6  4  0
  6  7  4  0
  7  2  4  0
M  END
$$$$

     RDKit          3D

  7  7  0  0  0  0  0  0  0  0999 V2000
   -1.4174    0.6893   -2.2227 F   0  0  0  0  0  0  0  0  0  0  0  0
   -0.7332    0.3398   -1.1036 C   0  0  0  0  0  0  0  0  0  0  0  0
   -1.4173   -0.0211    0.0704 C   0  0  0  0  0  0  0  0  0  0  0  0
   -0.6807   -0.3478    1.2193 C   0  0  0  0  0  0  0  0  0  0  0  0
    0.7160   -0.3228    1.1965 C   0  0  0  0  0  0  0  0  0  0  0  0
    1.4049    0.0337    0.0240 C   0  0  0  0  0  0  0  0  0  0  0  0
    0.6647    0.3661   -1.1245 C   0  0  0  0  0  0  0  0  0  0  0  0
  1  2  1  0
  2  3  4  0
  3  4  4  0
  4  5  4  0
  5  6  4  0
  6  7  4  0
  7  2  4  0
M  END
$$$$

     RDKit          3D

  7  7  0  0  0  0  0  0  0  0999 V2000
   -1.2752   -2.0740   -1.4940 F   0  0  0  0  0  0  0  0  0  0  0  0
   -0.6609   -1.0487   -0.8503 C   0  0  0  0  0  0  0  0  0  0  0  0
   -1.4159   -0.0503   -0.2103 C   0  0  0  0  0  0  0  0  0  0  0  0
   -0.7505    0.9796    0.4724 C   0  0  0  0  0  0  0  0  0  0  0  0
    0.6456    1.0183    0.5100 C   0  0  0  0  0  0  0  0  0  0  0  0
    1.4052    0.0244   -0.1315 C   0  0  0  0  0  0  0  0  0  0  0  0
    0.7363   -1.0097   -0.8102 C   0  0  0  0  0  0  0  0  0  0  0  0
  1  2  1  0
  2  3  4  0
  3  4  4  0
  4  5  4  0
  5  6  4  0
  6  7  4  0
  7  2  4  0
M  END
$$$$

     RDKit          3D

  7  7  0  0  0  0  0  0  0  0999 V2000
   -1.2468    2.1878    1.2615 F   0  0  0  0  0  0  0  0  0  0  0  0
   -0.6470    1.1076    0.6992 C   0  0  0  0  0  0  0  0  0  0  0  0
   -1.4136    0.1041    0.0812 C   0  0  0  0  0  0  0  0  0  0  0  0
   -0.7614   -0.9847   -0.5176 C   0  0  0  0  0  0  0  0  0  0  0  0
    0.6326   -1.0762   -0.4940 C   0  0  0  0  0  0  0  0  0  0  0  0
    1.4034   -0.0773    0.1260 C   0  0  0  0  0  0  0  0  0  0  0  0
    0.7481    1.0157    0.7205 C   0  0  0  0  0  0  0  0  0  0  0  0
  1  2  1  0
  2  3  4  0
  3  4  4  0
  4  5  4  0
  5  6  4  0
  6  7  4  0
  7  2  4  0
M  END
$$$$

     RDKit          3D

  7  7  0  0  0  0  0  0  0  0999 V2000
    1.3165    0.0897   -2.2372 F   0  0  0  0  0  0  0  0  0  0  0  0
    0.6817    0.0567   -1.0377 C   0  0  0  0  0  0  0  0  0  0  0  0
    1.4164    0.0365    0.1608 C   0  0  0  0  0  0  0  0  0  0  0  0
    0.7306   -0.0283    1.3834 C   0  0  0  0  0  0  0  0  0  0  0  0
   -0.6658   -0.0644    1.4117 C   0  0  0  0  0  0  0  0  0  0  0  0
   -1.4051   -0.0405    0.2162 C   0  0  0  0  0  0  0  0  0  0  0  0
   -0.7157    0.0188   -1.0080 C   0  0  0  0  0  0  0  0  0  0  0  0
  1  2  1  0
  2  3  4  0
  3  4  4  0
  4  5  4  0
  5  6  4  0
  6  7  4  0
  7  2  4  0
M  END
$$$$

     RDKit          3D

  3  2  0  0  0  0  0  0  0  0999 V2000
    0.0221   -0.9456   -1.7284 F   0  0  0  0  0  0  0  0  0  0  0  0
    0.4498   -0.3377   -0.5906 C   0  0  0  0  0  0  0  0  0  0  0  0
   -0.4366    0.2815    0.2076 C   0  0  0  0  0  0  0  0  0  0  0  0
  1  2  1  0
  2  3  2  0
M  END
$$$$

     RDKit          3D

  3  2  0  0  0  0  0  0  0  0999 V2000
   -0.0193    1.7544    0.3745 F   0  0  0  0  0  0  0  0  0  0  0  0
    0.4402    0.5433   -0.0368 C   0  0  0  0  0  0  0  0  0  0  0  0
   -0.4277   -0.4591   -0.2565 C   0  0  0  0  0  0  0  0  0  0  0  0
  1  2  1  0
  2  3  2  0
M  END
$$$$

     RDKit          3D

  3  2  0  0  0  0  0  0  0  0999 V2000
    0.0906   -0.6536    1.5626 F   0  0  0  0  0  0  0  0  0  0  0  0
   -0.4208   -0.2064    0.3854 C   0  0  0  0  0  0  0  0  0  0  0  0
    0.4100    0.1775   -0.5989 C   0  0  0  0  0  0  0  0  0  0  0  0
  1  2  1  0
  2  3  2  0
M  END
$$$$

     RDKit          3D

  3  2  0  0  0  0  0  0  0  0999 V2000
    0.0106   -1.5447    0.9614 F   0  0  0  0  0  0  0  0  0  0  0  0
    0.4425   -0.3994    0.3701 C   0  0  0  0  0  0  0  0  0  0  0  0
   -0.4422    0.3992   -0.2490 C   0  0  0  0  0  0  0  0  0  0  0  0
  1  2  1  0
  2  3  2  0
M  END
$$$$

     RDKit          3D

  3  2  0  0  0  0  0  0  0  0999 V2000
   -0.2893    1.7730    0.0841 F   0  0  0  0  0  0  0  0  0  0  0  0
    0.3562    0.5904   -0.0965 C   0  0  0  0  0  0  0  0  0  0  0  0
   -0.3567   -0.5430   -0.1995 C   0  0  0  0  0  0  0  0  0  0  0  0
  1  2  1  0
  2  3  2  0
M  END
$$$$

     RDKit          3D

  3  2  0  0  0  0  0  0  0  0999 V2000
    0.2546   -0.8467   -1.5359 F   0  0  0  0  0  0  0  0  0  0  0  0
   -0.3667   -0.2223   -0.5008 C   0  0  0  0  0  0  0  0  0  0  0  0
    0.3667    0.2913    0.5006 C   0  0  0  0  0  0  0  0  0  0  0  0
  1  2  1  0
  2  3  2  0
M  END
$$$$

     RDKit          3D

  3  2  0  0  0  0  0  0  0  0999 V2000
   -0.1194    1.0412   -1.3320 F   0  0  0  0  0  0  0  0  0  0  0  0
   -0.4756    0.3048   -0.2466 C   0  0  0  0  0  0  0  0  0  0  0  0
    0.4751   -0.2922    0.4911 C   0  0  0  0  0  0  0  0  0  0  0  0
  1  2  1  0
  2  3  2  0
M  END
$$$$

     RDKit          3D

  3  2  0  0  0  0  0  0  0  0999 V2000
   -0.0924    0.4037   -1.6926 F   0  0  0  0  0  0  0  0  0  0  0  0
    0.4144    0.0517   -0.4816 C   0  0  0  0  0  0  0  0  0  0  0  0
   -0.4161   -0.3592    0.4910 C   0  0  0  0  0  0  0  0  0  0  0  0
  1  2  1  0
  2  3  2  0
M  END
$$$$

     RDKit          3D

  3  2  0  0  0  0  0  0  0  0999 V2000
    0.0710    1.7116    0.5240 F   0  0  0  0  0  0  0  0  0  0  0  0
   -0.4240    0.5078    0.1325 C   0  0  0  0  0  0  0  0  0  0  0  0
    0.4223   -0.4839   -0.1916 C   0  0  0  0  0  0  0  0  0  0  0  0
  1  2  1  0
  2  3  2  0
M  END
$$$$

     RDKit          3D

  3  2  0  0  0  0  0  0  0  0999 V2000
    1.4928   -3.4427    1.2776 F   0  0  0  0  0  0  0  0  0  0  0  0
    0.7959   -2.3398    0.9030 C   0  0  0  0  0  0  0  0  0  0  0  0
   -0.5353   -2.4542    0.7624 C   0  0  0  0  0  0  0  0  0  0  0  0
  1  2  1  0
  2  3  2  0
M  END
$$$$

     RDKit          3D

  4  3  0  0  0  0  0  0  0  0999 V2000
    0.2297   -1.4970   -1.1890 C   0  0  0  0  0  0  0  0  0  0  0  0
    0.4929   -0.4088   -0.1811 C   0  0  0  0  0  0  0  0  0  0  0  0
   -0.4926    0.4097    0.2537 C   0  0  0  0  0  0  0  0  0  0  0  0
   -0.2293    1.4978    1.2616 C   0  0  0  0  0  0  0  0  0  0  0  0
  1  2  1  0
  2  3  2  0
  3  4  1  0
M  END
$$$$

     RDKit          3D

  4  3  0  0  0  0  0  0  0  0999 V2000
    0.2297   -1.4970   -1.1890 C   0  0  0  0  0  0  0  0  0  0  0  0
    0.4929   -0.4088   -0.1811 C   0  0  0  0  0  0  0  0  0  0  0  0
   -0.4926    0.4097    0.2537 C   0  0  0  0  0  0  0  0  0  0  0  0
   -0.2293    1.4978    1.2616 C   0  0  0  0  0  0  0  0  0  0  0  0
  1  2  1  0
  2  3  2  0
  3  4  1  0
M  END
$$$$

     RDKit          3D

  4  3  0  0  0  0  0  0  0  0999 V2000
    0.2297   -1.4970   -1.1890 C   0  0  0  0  0  0  0  0  0  0  0  0
    0.4929   -0.4088   -0.1811 C   0  0  0  0  0  0  0  0  0  0  0  0
   -0.4926    0.4097    0.2537 C   0  0  0  0  0  0  0  0  0  0  0  0
   -0.2293    1.4978    1.2616 C   0  0  0  0  0  0  0  0  0  0  0  0
  1  2  1  0
  2  3  2  0
  3  4  1  0
M  END
$$$$

     RDKit          3D

  4  3  0  0  0  0  0  0  0  0999 V2000
   -0.2631    1.3275   -1.4111 C   0  0  0  0  0  0  0  0  0  0  0  0
   -0.4732    0.4486   -0.2059 C   0  0  0  0  0  0  0  0  0  0  0  0
    0.4794   -0.4125    0.2196 C   0  0  0  0  0  0  0  0  0  0  0  0
    0.2693   -1.2915    1.4247 C   0  0  0  0  0  0  0  0  0  0  0  0
  1  2  1  0
  2  3  2  0
  3  4  1  0
M  END
$$$$

     RDKit          3D

  4  3  0  0  0  0  0  0  0  0999 V2000
   -0.2631    1.3275   -1.4111 C   0  0  0  0  0  0  0  0  0  0  0  0
   -0.4732    0.4486   -0.2059 C   0  0  0  0  0  0  0  0  0  0  0  0
    0.4794   -0.4125    0.2196 C   0  0  0  0  0  0  0  0  0  0  0  0
    0.2693   -1.2915    1.4247 C   0  0  0  0  0  0  0  0  0  0  0  0
  1  2  1  0
  2  3  2  0
  3  4  1  0
M  END
$$$$

     RDKit          3D

  4  3  0  0  0  0  0  0  0  0999 V2000
   -0.2631    1.3275   -1.4111 C   0  0  0  0  0  0  0  0  0  0  0  0
   -0.4732    0.4486   -0.2059 C   0  0  0  0  0  0  0  0  0  0  0  0
    0.4794   -0.4125    0.2196 C   0  0  0  0  0  0  0  0  0  0  0  0
    0.2693   -1.2915    1.4247 C   0  0  0  0  0  0  0  0  0  0  0  0
  1  2  1  0
  2  3  2  0
  3  4  1  0
M  END
$$$$

     RDKit          3D

  4  3  0  0  0  0  0  0  0  0999 V2000
   -1.4239   -2.1459    0.5773 C   0  0  0  0  0  0  0  0  0  0  0  0
   -0.6472   -0.8947    0.2638 C   0  0  0  0  0  0  0  0  0  0  0  0
    0.4802   -0.9246   -0.4849 C   0  0  0  0  0  0  0  0  0  0  0  0
    1.0238   -2.2107   -1.0481 C   0  0  0  0  0  0  0  0  0  0  0  0
  1  2  1  0
  2  3  2  0
  3  4  1  0
M  END
$$$$

     RDKit          3D

  4  3  0  0  0  0  0  0  0  0999 V2000
   -1.4239   -2.1459    0.5773 C   0  0  0  0  0  0  0  0  0  0  0  0
   -0.6472   -0.8947    0.2638 C   0  0  0  0  0  0  0  0  0  0  0  0
    0.4802   -0.9246   -0.4849 C   0  0  0  0  0  0  0  0  0  0  0  0
    1.0238   -2.2107   -1.0481 C   0  0  0  0  0  0  0  0  0  0  0  0
  1  2  1  0
  2  3  2  0
  3  4  1  0
M  END
$$$$

     RDKit          3D

  4  3  0  0  0  0  0  0  0  0999 V2000
   -1.4239   -2.1459    0.5773 C   0  0  0  0  0  0  0  0  0  0  0  0
   -0.6472   -0.8947    0.2638 C   0  0  0  0  0  0  0  0  0  0  0  0
    0.4802   -0.9246   -0.4849 C   0  0  0  0  0  0  0  0  0  0  0  0
    1.0238   -2.2107   -1.0481 C   0  0  0  0  0  0  0  0  0  0  0  0
  1  2  1  0
  2  3  2  0
  3  4  1  0
M  END
$$$$

     RDKit          3D

  4  3  0  0  0  0  0  0  0  0999 V2000
   -0.4967   -2.1452   -1.6138 C   0  0  0  0  0  0  0  0  0  0  0  0
   -0.2717   -0.9114   -0.7806 C   0  0  0  0  0  0  0  0  0  0  0  0
    0.9636   -0.5506   -0.3608 C   0  0  0  0  0  0  0  0  0  0  0  0
    2.1852   -1.3617   -0.7023 C   0  0  0  0  0  0  0  0  0  0  0  0
  1  2  1  0
  2  3  2  0
  3  4  1  0
M  END
$$$$

     RDKit          3D

  4  3  0  0  0  0  0  0  0  0999 V2000
   -0.4967   -2.1452   -1.6138 C   0  0  0  0  0  0  0  0  0  0  0  0
   -0.2717   -0.9114   -0.7806 C   0  0  0  0  0  0  0  0  0  0  0  0
    0.9636   -0.5506   -0.3608 C   0  0  0  0  0  0  0  0  0  0  0  0
    2.1852   -1.3617   -0.7023 C   0  0  0  0  0  0  0  0  0  0  0  0
  1  2  1  0
  2  3  2  0
  3  4  1  0
M  END
$$$$

     RDKit          3D

  4  3  0  0  0  0  0  0  0  0999 V2000
   -0.4967   -2.1452   -1.6138 C   0  0  0  0  0  0  0  0  0  0  0  0
   -0.2717   -0.9114   -0.7806 C   0  0  0  0  0  0  0  0  0  0  0  0
    0.9636   -0.5506   -0.3608 C   0  0  0  0  0  0  0  0  0  0  0  0
    2.1852   -1.3617   -0.7023 C   0  0  0  0  0  0  0  0  0  0  0  0
  1  2  1  0
  2  3  2  0
  3  4  1  0
M  END
$$$$

     RDKit          3D

  4  3  0  0  0  0  0  0  0  0999 V2000
    1.4392    1.4540   -1.7058 C   0  0  0  0  0  0  0  0  0  0  0  0
    0.6533    0.5895   -0.7560 C   0  0  0  0  0  0  0  0  0  0  0  0
   -0.5848    0.9377   -0.3338 C   0  0  0  0  0  0  0  0  0  0  0  0
   -1.2489    2.2099   -0.7892 C   0  0  0  0  0  0  0  0  0  0  0  0
  1  2  1  0
  2  3  2  0
  3  4  1  0
M  END
$$$$

     RDKit          3D

  4  3  0  0  0  0  0  0  0  0999 V2000
    1.4392    1.4540   -1.7058 C   0  0  0  0  0  0  0  0  0  0  0  0
    0.6533    0.5895   -0.7560 C   0  0  0  0  0  0  0  0  0  0  0  0
   -0.5848    0.9377   -0.3338 C   0  0  0  0  0  0  0  0  0  0  0  0
   -1.2489    2.2099   -0.7892 C   0  0  0  0  0  0  0  0  0  0  0  0
  1  2  1  0
  2  3  2  0
  3  4  1  0
M  END
$$$$

     RDKit          3D

  4  3  0  0  0  0  0  0  0  0999 V2000
    1.4392    1.4540   -1.7058 C   0  0  0  0  0  0  0  0  0  0  0  0
    0.6533    0.5895   -0.7560 C   0  0  0  0  0  0  0  0  0  0  0  0
   -0.5848    0.9377   -0.3338 C   0  0  0  0  0  0  0  0  0  0  0  0
   -1.2489    2.2099   -0.7892 C   0  0  0  0  0  0  0  0  0  0  0  0
  1  2  1  0
  2  3  2  0
  3  4  1  0
M  END
$$$$

     RDKit          3D

  4  3  0  0  0  0  0  0  0  0999 V2000
    1.1666   -2.3568    0.0049 C   0  0  0  0  0  0  0  0  0  0  0  0
    0.5412   -0.9925   -0.1154 C   0  0  0  0  0  0  0  0  0  0  0  0
   -0.6103   -0.6776    0.5229 C   0  0  0  0  0  0  0  0  0  0  0  0
   -1.3333   -1.6732    1.3907 C   0  0  0  0  0  0  0  0  0  0  0  0
  1  2  1  0
  2  3  2  0
  3  4  1  0
M  END
$$$$

     RDKit          3D

  4  3  0  0  0  0  0  0  0  0999 V2000
    1.1666   -2.3568    0.0049 C   0  0  0  0  0  0  0  0  0  0  0  0
    0.5412   -0.9925   -0.1154 C   0  0  0  0  0  0  0  0  0  0  0  0
   -0.6103   -0.6776    0.5229 C   0  0  0  0  0  0  0  0  0  0  0  0
   -1.3333   -1.6732    1.3907 C   0  0  0  0  0  0  0  0  0  0  0  0
  1  2  1  0
  2  3  2  0
  3  4  1  0
M  END
$$$$

     RDKit          3D

  4  3  0  0  0  0  0  0  0  0999 V2000
    1.1666   -2.3568    0.0049 C   0  0  0  0  0  0  0  0  0  0  0  0
    0.5412   -0.9925   -0.1154 C   0  0  0  0  0  0  0  0  0  0  0  0
   -0.6103   -0.6776    0.5229 C   0  0  0  0  0  0  0  0  0  0  0  0
   -1.3333   -1.6732    1.3907 C   0  0  0  0  0  0  0  0  0  0  0  0
  1  2  1  0
  2  3  2  0
  3  4  1  0
M  END
$$$$
