
     RDKit          3D

  3  2  0  0  0  0  0  0  0  0999 V2000
   -0.6814   -2.7710    0.5938 C   0  0  0  0  0  0  0  0  0  0  0  0
   -0.1675   -1.3859    0.3355 C   0  0  0  0  0  0  0  0  0  0  0  0
    1.1309   -1.2006    0.0545 C   0  0  0  0  0  0  0  0  0  0  0  0
  1  2  1  0
  2  3  2  0
M  END
$$$$

     RDKit          3D

  3  2  0  0  0  0  0  0  0  0999 V2000
   -0.6814   -2.7710    0.5938 C   0  0  0  0  0  0  0  0  0  0  0  0
   -0.1675   -1.3859    0.3355 C   0  0  0  0  0  0  0  0  0  0  0  0
    1.1309   -1.2006    0.0545 C   0  0  0  0  0  0  0  0  0  0  0  0
  1  2  1  0
  2  3  2  0
M  END
$$$$

     RDKit          3D

  3  2  0  0  0  0  0  0  0  0999 V2000
   -0.6814   -2.7710    0.5938 C   0  0  0  0  0  0  0  0  0  0  0  0
   -0.1675   -1.3859    0.3355 C   0  0  0  0  0  0  0  0  0  0  0  0
    1.1309   -1.2006    0.0545 C   0  0  0  0  0  0  0  0  0  0  0  0
  1  2  1  0
  2  3  2  0
M  END
$$$$

     RDKit          3D

  3  2  0  0  0  0  0  0  0  0999 V2000
   -0.6814   -2.7710    0.5938 C   0  0  0  0  0  0  0  0  0  0  0  0
   -0.1675   -1.3859    0.3355 C   0  0  0  0  0  0  0  0  0  0  0  0
    1.1309   -1.2006    0.0545 C   0  0  0  0  0  0  0  0  0  0  0  0
  1  2  1  0
  2  3  2  0
M  END
$$$$

     RDKit          3D

  3  2  0  0  0  0  0  0  0  0999 V2000
   -0.6814   -2.7710    0.5938 C   0  0  0  0  0  0  0  0  0  0  0  0
   -0.1675   -1.3859    0.3355 C   0  0  0  0  0  0  0  0  0  0  0  0
    1.1309   -1.2006    0.0545 C   0  0  0  0  0  0  0  0  0  0  0  0
  1  2  1  0
  2  3  2  0
M  END
$$$$

     RDKit          3D

  3  2  0  0  0  0  0  0  0  0999 V2000
   -0.5099   -2.6869   -0.8148 C   0  0  0  0  0  0  0  0  0  0  0  0
   -0.0934   -1.3474   -0.2841 C   0  0  0  0  0  0  0  0  0  0  0  0
    1.0773   -1.2220    0.3582 C   0  0  0  0  0  0  0  0  0  0  0  0
  1  2  1  0
  2  3  2  0
M  END
$$$$

     RDKit          3D

  3  2  0  0  0  0  0  0  0  0999 V2000
   -0.5099   -2.6869   -0.8148 C   0  0  0  0  0  0  0  0  0  0  0  0
   -0.0934   -1.3474   -0.2841 C   0  0  0  0  0  0  0  0  0  0  0  0
    1.0773   -1.2220    0.3582 C   0  0  0  0  0  0  0  0  0  0  0  0
  1  2  1  0
  2  3  2  0
M  END
$$$$

     RDKit          3D

  3  2  0  0  0  0  0  0  0  0999 V2000
   -0.5099   -2.6869   -0.8148 C   0  0  0  0  0  0  0  0  0  0  0  0
   -0.0934   -1.3474   -0.2841 C   0  0  0  0  0  0  0  0  0  0  0  0
    1.0773   -1.2220    0.3582 C   0  0  0  0  0  0  0  0  0  0  0  0
  1  2  1  0
  2  3  2  0
M  END
$$$$

     RDKit          3D

  3  2  0  0  0  0  0  0  0  0999 V2000
   -0.5099   -2.6869   -0.8148 C   0  0  0  0  0  0  0  0  0  0  0  0
   -0.0934   -1.3474   -0.2841 C   0  0  0  0  0  0  0  0  0  0  0  0
    1.0773   -1.2220    0.3582 C   0  0  0  0  0  0  0  0  0  0  0  0
  1  2  1  0
  2  3  2  0
M  END
$$$$

     RDKit          3D

  3  2  0  0  0  0  0  0  0  0999 V2000
   -0.5099   -2.6869   -0.8148 C   0  0  0  0  0  0  0  0  0  0  0  0
   -0.0934   -1.3474   -0.2841 C   0  0  0  0  0  0  0  0  0  0  0  0
    1.0773   -1.2220    0.3582 C   0  0  0  0  0  0  0  0  0  0  0  0
  1  2  1  0
  2  3  2  0
M  END
$$$$

     RDKit          3D

  3  2  0  0  0  0  0  0  0  0999 V2000
    1.6438   -2.3337   -0.3377 C   0  0  0  0  0  0  0  0  0  0  0  0
    0.6612   -1.2228   -0.1147 C   0  0  0  0  0  0  0  0  0  0  0  0
   -0.6478   -1.5015   -0.0258 C   0  0  0  0  0  0  0  0  0  0  0  0
  1  2  1  0
  2  3  2  0
M  END
$$$$

     RDKit          3D

  3  2  0  0  0  0  0  0  0  0999 V2000
    1.6438   -2.3337   -0.3377 C   0  0  0  0  0  0  0  0  0  0  0  0
    0.6612   -1.2228   -0.1147 C   0  0  0  0  0  0  0  0  0  0  0  0
   -0.6478   -1.5015   -0.0258 C   0  0  0  0  0  0  0  0  0  0  0  0
  1  2  1  0
  2  3  2  0
M  END
$$$$

     RDKit          3D

  3  2  0  0  0  0  0  0  0  0999 V2000
    1.6438   -2.3337   -0.3377 C   0  0  0  0  0  0  0  0  0  0  0  0
    0.6612   -1.2228   -0.1147 C   0  0  0  0  0  0  0  0  0  0  0  0
   -0.6478   -1.5015   -0.0258 C   0  0  0  0  0  0  0  0  0  0  0  0
  1  2  1  0
  2  3  2  0
M  END
$$$$

     RDKit          3D

  3  2  0  0  0  0  0  0  0  0999 V2000
    1.6438   -2.3337   -0.3377 C   0  0  0  0  0  0  0  0  0  0  0  0
    0.6612   -1.2228   -0.1147 C   0  0  0  0  0  0  0  0  0  0  0  0
   -0.6478   -1.5015   -0.0258 C   0  0  0  0  0  0  0  0  0  0  0  0
  1  2  1  0
  2  3  2  0
M  END
$$$$

     RDKit          3D

  3  2  0  0  0  0  0  0  0  0999 V2000
    1.6438   -2.3337   -0.3377 C   0  0  0  0  0  0  0  0  0  0  0  0
    0.6612   -1.2228   -0.1147 C   0  0  0  0  0  0  0  0  0  0  0  0
   -0.6478   -1.5015   -0.0258 C   0  0  0  0  0  0  0  0  0  0  0  0
  1  2  1  0
  2  3  2  0
M  END
$$$$

     RDKit          3D

  3  2  0  0  0  0  0  0  0  0999 V2000
   -1.3280   -1.4597    2.0393 C   0  0  0  0  0  0  0  0  0  0  0  0
   -0.7880   -0.6666    0.8866 C   0  0  0  0  0  0  0  0  0  0  0  0
   -1.6344   -0.1289   -0.0042 C   0  0  0  0  0  0  0  0  0  0  0  0
  1  2  1  0
  2  3  2  0
M  END
$$$$

     RDKit          3D

  3  2  0  0  0  0  0  0  0  0999 V2000
   -1.3280   -1.4597    2.0393 C   0  0  0  0  0  0  0  0  0  0  0  0
   -0.7880   -0.6666    0.8866 C   0  0  0  0  0  0  0  0  0  0  0  0
   -1.6344   -0.1289   -0.0042 C   0  0  0  0  0  0  0  0  0  0  0  0
  1  2  1  0
  2  3  2  0
M  END
$$$$

     RDKit          3D

  3  2  0  0  0  0  0  0  0  0999 V2000
   -1.3280   -1.4597    2.0393 C   0  0  0  0  0  0  0  0  0  0  0  0
   -0.7880   -0.6666    0.8866 C   0  0  0  0  0  0  0  0  0  0  0  0
   -1.6344   -0.1289   -0.0042 C   0  0  0  0  0  0  0  0  0  0  0  0
  1  2  1  0
  2  3  2  0
M  END
$$$$

     RDKit          3D

  3  2  0  0  0  0  0  0  0  0999 V2000
   -1.3280   -1.4597    2.0393 C   0  0  0  0  0  0  0  0  0  0  0  0
   -0.7880   -0.6666    0.8866 C   0  0  0  0  0  0  0  0  0  0  0  0
   -1.6344   -0.1289   -0.0042 C   0  0  0  0  0  0  0  0  0  0  0  0
  1  2  1  0
  2  3  2  0
M  END
$$$$

     RDKit          3D

  3  2  0  0  0  0  0  0  0  0999 V2000
   -1.3280   -1.4597    2.0393 C   0  0  0  0  0  0  0  0  0  0  0  0
   -0.7880   -0.6666    0.8866 C   0  0  0  0  0  0  0  0  0  0  0  0
   -1.6344   -0.1289   -0.0042 C   0  0  0  0  0  0  0  0  0  0  0  0
  1  2  1  0
  2  3  2  0
M  END
$$$$

     RDKit          3D

  3  2  0  0  0  0  0  0  0  0999 V2000
   -0.1099   -0.5604    1.3650 C   0  0  0  0  0  0  0  0  0  0  0  0
    0.4574   -0.0140    0.0833 C   0  0  0  0  0  0  0  0  0  0  0  0
   -0.3175    0.2865   -0.9688 C   0  0  0  0  0  0  0  0  0  0  0  0
  1  2  1  0
  2  3  2  0
M  END
$$$$

     RDKit          3D

  3  2  0  0  0  0  0  0  0  0999 V2000
   -0.1099   -0.5604    1.3650 C   0  0  0  0  0  0  0  0  0  0  0  0
    0.4574   -0.0140    0.0833 C   0  0  0  0  0  0  0  0  0  0  0  0
   -0.3175    0.2865   -0.9688 C   0  0  0  0  0  0  0  0  0  0  0  0
  1  2  1  0
  2  3  2  0
M  END
$$$$

     RDKit          3D

  3  2  0  0  0  0  0  0  0  0999 V2000
   -0.1099   -0.5604    1.3650 C   0  0  0  0  0  0  0  0  0  0  0  0
    0.4574   -0.0140    0.0833 C   0  0  0  0  0  0  0  0  0  0  0  0
   -0.3175    0.2865   -0.9688 C   0  0  0  0  0  0  0  0  0  0  0  0
  1  2  1  0
  2  3  2  0
M  END
$$$$

     RDKit          3D

  3  2  0  0  0  0  0  0  0  0999 V2000
   -0.1099   -0.5604    1.3650 C   0  0  0  0  0  0  0  0  0  0  0  0
    0.4574   -0.0140    0.0833 C   0  0  0  0  0  0  0  0  0  0  0  0
   -0.3175    0.2865   -0.9688 C   0  0  0  0  0  0  0  0  0  0  0  0
  1  2  1  0
  2  3  2  0
M  END
$$$$

     RDKit          3D

  3  2  0  0  0  0  0  0  0  0999 V2000
   -0.1099   -0.5604    1.3650 C   0  0  0  0  0  0  0  0  0  0  0  0
    0.4574   -0.0140    0.0833 C   0  0  0  0  0  0  0  0  0  0  0  0
   -0.3175    0.2865   -0.9688 C   0  0  0  0  0  0  0  0  0  0  0  0
  1  2  1  0
  2  3  2  0
M  END
$$$$

     RDKit          3D

  3  2  0  0  0  0  0  0  0  0999 V2000
   -0.2397   -1.5409   -0.0387 C   0  0  0  0  0  0  0  0  0  0  0  0
   -0.4503   -0.0615   -0.2137 C   0  0  0  0  0  0  0  0  0  0  0  0
    0.4932    0.8360    0.1056 C   0  0  0  0  0  0  0  0  0  0  0  0
  1  2  1  0
  2  3  2  0
M  END
$$$$

     RDKit          3D

  3  2  0  0  0  0  0  0  0  0999 V2000
   -0.2397   -1.5409   -0.0387 C   0  0  0  0  0  0  0  0  0  0  0  0
   -0.4503   -0.0615   -0.2137 C   0  0  0  0  0  0  0  0  0  0  0  0
    0.4932    0.8360    0.1056 C   0  0  0  0  0  0  0  0  0  0  0  0
  1  2  1  0
  2  3  2  0
M  END
$$$$

     RDKit          3D

  3  2  0  0  0  0  0  0  0  0999 V2000
   -0.2397   -1.5409   -0.0387 C   0  0  0  0  0  0  0  0  0  0  0  0
   -0.4503   -0.0615   -0.2137 C   0  0  0  0  0  0  0  0  0  0  0  0
    0.4932    0.8360    0.1056 C   0  0  0  0  0  0  0  0  0  0  0  0
  1  2  1  0
  2  3  2  0
M  END
$$$$

     RDKit          3D

  3  2  0  0  0  0  0  0  0  0999 V2000
   -0.2397   -1.5409   -0.0387 C   0  0  0  0  0  0  0  0  0  0  0  0
   -0.4503   -0.0615   -0.2137 C   0  0  0  0  0  0  0  0  0  0  0  0
    0.4932    0.8360    0.1056 C   0  0  0  0  0  0  0  0  0  0  0  0
  1  2  1  0
  2  3  2  0
M  END
$$$$

     RDKit          3D

  3  2  0  0  0  0  0  0  0  0999 V2000
   -0.2397   -1.5409   -0.0387 C   0  0  0  0  0  0  0  0  0  0  0  0
   -0.4503   -0.0615   -0.2137 C   0  0  0  0  0  0  0  0  0  0  0  0
    0.4932    0.8360    0.1056 C   0  0  0  0  0  0  0  0  0  0  0  0
  1  2  1  0
  2  3  2  0
M  END
$$$$

     RDKit          3D

  3  2  0  0  0  0  0  0  0  0999 V2000
    0.0615   -1.5812   -0.0523 C   0  0  0  0  0  0  0  0  0  0  0  0
    0.4593   -0.1308   -0.0149 C   0  0  0  0  0  0  0  0  0  0  0  0
   -0.3982    0.8522   -0.3246 C   0  0  0  0  0  0  0  0  0  0  0  0
  1  2  1  0
  2  3  2  0
M  END
$$$$

     RDKit          3D

  3  2  0  0  0  0  0  0  0  0999 V2000
    0.0615   -1.5812   -0.0523 C   0  0  0  0  0  0  0  0  0  0  0  0
    0.4593   -0.1308   -0.0149 C   0  0  0  0  0  0  0  0  0  0  0  0
   -0.3982    0.8522   -0.3246 C   0  0  0  0  0  0  0  0  0  0  0  0
  1  2  1  0
  2  3  2  0
M  END
$$$$

     RDKit          3D

  3  2  0  0  0  0  0  0  0  0999 V2000
    0.0615   -1.5812   -0.0523 C   0  0  0  0  0  0  0  0  0  0  0  0
    0.4593   -0.1308   -0.0149 C   0  0  0  0  0  0  0  0  0  0  0  0
   -0.3982    0.8522   -0.3246 C   0  0  0  0  0  0  0  0  0  0  0  0
  1  2  1  0
  2  3  2  0
M  END
$$$$

     RDKit          3D

  3  2  0  0  0  0  0  0  0  0999 V2000
    0.0615   -1.5812   -0.0523 C   0  0  0  0  0  0  0  0  0  0  0  0
    0.4593   -0.1308   -0.0149 C   0  0  0  0  0  0  0  0  0  0  0  0
   -0.3982    0.8522   -0.3246 C   0  0  0  0  0  0  0  0  0  0  0  0
  1  2  1  0
  2  3  2  0
M  END
$$$$

     RDKit          3D

  3  2  0  0  0  0  0  0  0  0999 V2000
    0.0615   -1.5812   -0.0523 C   0  0  0  0  0  0  0  0  0  0  0  0
    0.4593   -0.1308   -0.0149 C   0  0  0  0  0  0  0  0  0  0  0  0
   -0.3982    0.8522   -0.3246 C   0  0  0  0  0  0  0  0  0  0  0  0
  1  2  1  0
  2  3  2  0
M  END
$$$$

     RDKit          3D

  3  2  0  0  0  0  0  0  0  0999 V2000
    0.1512   -1.3881    0.5842 C   0  0  0  0  0  0  0  0  0  0  0  0
   -0.4549   -0.1664   -0.0512 C   0  0  0  0  0  0  0  0  0  0  0  0
    0.2968    0.8143   -0.5717 C   0  0  0  0  0  0  0  0  0  0  0  0
  1  2  1  0
  2  3  2  0
M  END
$$$$

     RDKit          3D

  3  2  0  0  0  0  0  0  0  0999 V2000
    0.1512   -1.3881    0.5842 C   0  0  0  0  0  0  0  0  0  0  0  0
   -0.4549   -0.1664   -0.0512 C   0  0  0  0  0  0  0  0  0  0  0  0
    0.2968    0.8143   -0.5717 C   0  0  0  0  0  0  0  0  0  0  0  0
  1  2  1  0
  2  3  2  0
M  END
$$$$

     RDKit          3D

  3  2  0  0  0  0  0  0  0  0999 V2000
    0.1512   -1.3881    0.5842 C   0  0  0  0  0  0  0  0  0  0  0  0
   -0.4549   -0.1664   -0.0512 C   0  0  0  0  0  0  0  0  0  0  0  0
    0.2968    0.8143   -0.5717 C   0  0  0  0  0  0  0  0  0  0  0  0
  1  2  1  0
  2  3  2  0
M  END
$$$$

     RDKit          3D

  3  2  0  0  0  0  0  0  0  0999 V2000
    0.1512   -1.3881    0.5842 C   0  0  0  0  0  0  0  0  0  0  0  0
   -0.4549   -0.1664   -0.0512 C   0  0  0  0  0  0  0  0  0  0  0  0
    0.2968    0.8143   -0.5717 C   0  0  0  0  0  0  0  0  0  0  0  0
  1  2  1  0
  2  3  2  0
M  END
$$$$

     RDKit          3D

  3  2  0  0  0  0  0  0  0  0999 V2000
    0.1512   -1.3881    0.5842 C   0  0  0  0  0  0  0  0  0  0  0  0
   -0.4549   -0.1664   -0.0512 C   0  0  0  0  0  0  0  0  0  0  0  0
    0.2968    0.8143   -0.5717 C   0  0  0  0  0  0  0  0  0  0  0  0
  1  2  1  0
  2  3  2  0
M  END
$$$$

     RDKit          3D

  9  9  0  0  0  0  0  0  0  0999 V2000
   -1.3348   -2.0453    1.9485 Cl  0  0  0  0  0  0  0  0  0  0  0  0
   -0.6018   -0.9023    0.8271 C   0  0  0  0  0  0  0  0  0  0  0  0
    0.7899   -0.8016    0.7915 C   0  0  0  0  0  0  0  0  0  0  0  0
    1.4166    0.0978   -0.0785 C   0  0  0  0  0  0  0  0  0  0  0  0
    0.6403    0.9074   -0.9292 C   0  0  0  0  0  0  0  0  0  0  0  0
    1.4280    2.0397   -2.0324 Cl  0  0  0  0  0  0  0  0  0  0  0  0
   -0.7634    0.8108   -0.8984 C   0  0  0  0  0  0  0  0  0  0  0  0
   -1.7407    1.8253   -1.9649 Cl  0  0  0  0  0  0  0  0  0  0  0  0
   -1.3880   -0.0951   -0.0159 C   0  0  0  0  0  0  0  0  0  0  0  0
  1  2  1  0
  2  3  4  0
  3  4  4  0
  4  5  4  0
  5  6  1  0
  5  7  4  0
  7  8  1  0
  7  9  4  0
  9  2  4  0
M  END
$$$$

     RDKit          3D

  9  9  0  0  0  0  0  0  0  0999 V2000
    1.5003   -0.7308   -2.6562 Cl  0  0  0  0  0  0  0  0  0  0  0  0
    0.6737   -0.3058   -1.1604 C   0  0  0  0  0  0  0  0  0  0  0  0
   -0.7204   -0.3649   -1.1282 C   0  0  0  0  0  0  0  0  0  0  0  0
   -1.4199   -0.0400    0.0395 C   0  0  0  0  0  0  0  0  0  0  0  0
   -0.7152    0.3533    1.1931 C   0  0  0  0  0  0  0  0  0  0  0  0
   -1.5950    0.7684    2.6673 Cl  0  0  0  0  0  0  0  0  0  0  0  0
    0.6906    0.4151    1.1673 C   0  0  0  0  0  0  0  0  0  0  0  0
    1.5784    0.9045    2.6143 Cl  0  0  0  0  0  0  0  0  0  0  0  0
    1.3887    0.0825   -0.0122 C   0  0  0  0  0  0  0  0  0  0  0  0
  1  2  1  0
  2  3  4  0
  3  4  4  0
  4  5  4  0
  5  6  1  0
  5  7  4  0
  7  8  1  0
  7  9  4  0
  9  2  4  0
M  END
$$$$

     RDKit          3D

  9  9  0  0  0  0  0  0  0  0999 V2000
    1.4113    2.7817    0.2701 Cl  0  0  0  0  0  0  0  0  0  0  0  0
    0.6353    1.2142    0.0646 C   0  0  0  0  0  0  0  0  0  0  0  0
   -0.7589    1.1523    0.0826 C   0  0  0  0  0  0  0  0  0  0  0  0
   -1.4192   -0.0720   -0.0712 C   0  0  0  0  0  0  0  0  0  0  0  0
   -0.6744   -1.2537   -0.2465 C   0  0  0  0  0  0  0  0  0  0  0  0
   -1.5043   -2.8011   -0.4371 Cl  0  0  0  0  0  0  0  0  0  0  0  0
    0.7318   -1.1981   -0.2660 C   0  0  0  0  0  0  0  0  0  0  0  0
    1.6697   -2.6792   -0.4865 Cl  0  0  0  0  0  0  0  0  0  0  0  0
    1.3902    0.0392   -0.1082 C   0  0  0  0  0  0  0  0  0  0  0  0
  1  2  1  0
  2  3  4  0
  3  4  4  0
  4  5  4  0
  5  6  1  0
  5  7  4  0
  7  8  1  0
  7  9  4  0
  9  2  4  0
M  END
$$$$

     RDKit          3D

  9  9  0  0  0  0  0  0  0  0999 V2000
    1.2266   -2.3912    1.5706 Cl  0  0  0  0  0  0  0  0  0  0  0  0
    0.5551   -1.0497    0.6483 C   0  0  0  0  0  0  0  0  0  0  0  0
   -0.8326   -0.9336    0.5532 C   0  0  0  0  0  0  0  0  0  0  0  0
   -1.4114    0.1192   -0.1644 C   0  0  0  0  0  0  0  0  0  0  0  0
   -0.5904    1.0714   -0.7978 C   0  0  0  0  0  0  0  0  0  0  0  0
   -1.3174    2.4036   -1.7012 Cl  0  0  0  0  0  0  0  0  0  0  0  0
    0.8096    0.9599   -0.7062 C   0  0  0  0  0  0  0  0  0  0  0  0
    1.8430    2.1527   -1.5006 Cl  0  0  0  0  0  0  0  0  0  0  0  0
    1.3856   -0.1028    0.0207 C   0  0  0  0  0  0  0  0  0  0  0  0
  1  2  1  0
  2  3  4  0
  3  4  4  0
  4  5  4  0
  5  6  1  0
  5  7  4  0
  7  8  1  0
  7  9  4  0
  9  2  4  0
M  END
$$$$

     RDKit          3D

  9  9  0  0  0  0  0  0  0  0999 V2000
   -1.6790   -1.6576   -1.9783 Cl  0  0  0  0  0  0  0  0  0  0  0  0
   -0.7548   -0.7377   -0.7947 C   0  0  0  0  0  0  0  0  0  0  0  0
    0.6285   -0.9163   -0.7431 C   0  0  0  0  0  0  0  0  0  0  0  0
    1.4049   -0.2016    0.1760 C   0  0  0  0  0  0  0  0  0  0  0  0
    0.7887    0.7040    1.0604 C   0  0  0  0  0  0  0  0  0  0  0  0
    1.7647    1.6034    2.2258 Cl  0  0  0  0  0  0  0  0  0  0  0  0
   -0.6057    0.8888    1.0137 C   0  0  0  0  0  0  0  0  0  0  0  0
   -1.3823    2.0241    2.1227 Cl  0  0  0  0  0  0  0  0  0  0  0  0
   -1.3810    0.1679    0.0818 C   0  0  0  0  0  0  0  0  0  0  0  0
  1  2  1  0
  2  3  4  0
  3  4  4  0
  4  5  4  0
  5  6  1  0
  5  7  4  0
  7  8  1  0
  7  9  4  0
  9  2  4  0
M  END
$$$$

     RDKit          3D

  9  9  0  0  0  0  0  0  0  0999 V2000
    1.2712    0.2350    2.8882 Cl  0  0  0  0  0  0  0  0  0  0  0  0
    0.5745    0.1219    1.2748 C   0  0  0  0  0  0  0  0  0  0  0  0
   -0.8154    0.1140    1.1470 C   0  0  0  0  0  0  0  0  0  0  0  0
   -1.4138    0.0219   -0.1147 C   0  0  0  0  0  0  0  0  0  0  0  0
   -0.6105   -0.0605   -1.2678 C   0  0  0  0  0  0  0  0  0  0  0  0
   -1.3622   -0.1720   -2.8622 Cl  0  0  0  0  0  0  0  0  0  0  0  0
    0.7917   -0.0530   -1.1460 C   0  0  0  0  0  0  0  0  0  0  0  0
    1.8029   -0.1607   -2.5908 Cl  0  0  0  0  0  0  0  0  0  0  0  0
    1.3874    0.0363    0.1293 C   0  0  0  0  0  0  0  0  0  0  0  0
  1  2  1  0
  2  3  4  0
  3  4  4  0
  4  5  4  0
  5  6  1  0
  5  7  4  0
  7  8  1  0
  7  9  4  0
  9  2  4  0
M  END
$$$$

     RDKit          3D

  9  9  0  0  0  0  0  0  0  0999 V2000
    1.5961   -1.8056   -2.0184 Cl  0  0  0  0  0  0  0  0  0  0  0  0
    0.7159   -0.7975   -0.8738 C   0  0  0  0  0  0  0  0  0  0  0  0
   -0.6790   -0.7924   -0.9241 C   0  0  0  0  0  0  0  0  0  0  0  0
   -1.4205   -0.0025   -0.0384 C   0  0  0  0  0  0  0  0  0  0  0  0
   -0.7576    0.7951    0.9136 C   0  0  0  0  0  0  0  0  0  0  0  0
   -1.6902    1.7965    2.0304 Cl  0  0  0  0  0  0  0  0  0  0  0  0
    0.6487    0.7943    0.9701 C   0  0  0  0  0  0  0  0  0  0  0  0
    1.4837    1.7932    2.1644 Cl  0  0  0  0  0  0  0  0  0  0  0  0
    1.3892   -0.0029    0.0726 C   0  0  0  0  0  0  0  0  0  0  0  0
  1  2  1  0
  2  3  4  0
  3  4  4  0
  4  5  4  0
  5  6  1  0
  5  7  4  0
  7  8  1  0
  7  9  4  0
  9  2  4  0
M  END
$$$$

     RDKit          3D

  6  6  0  0  0  0  0  0  0  0999 V2000
    0.0480   -0.1686   -1.2151 N   0  0  0  0  0  0  0  0  0  0  0  0
    1.3756   -0.2207   -1.3094 N   0  0  0  0  0  0  0  0  0  0  0  0
    2.1521   -0.2354   -0.1940 C   0  0  0  0  0  0  0  0  0  0  0  0
    1.5428   -0.1960    1.0202 N   0  0  0  0  0  0  0  0  0  0  0  0
    0.2152   -0.1444    1.1153 N   0  0  0  0  0  0  0  0  0  0  0  0
   -0.5566   -0.1297   -0.0009 C   0  0  0  0  0  0  0  0  0  0  0  0
  1  2  4  0
  2  3  4  0
  3  4  4  0
  4  5  4  0
  5  6  4  0
  6  1  4  0
M  END
$$$$

     RDKit          3D

  6  6  0  0  0  0  0  0  0  0999 V2000
    0.0480   -0.1686   -1.2151 N   0  0  0  0  0  0  0  0  0  0  0  0
    1.3756   -0.2207   -1.3094 N   0  0  0  0  0  0  0  0  0  0  0  0
    2.1521   -0.2354   -0.1940 C   0  0  0  0  0  0  0  0  0  0  0  0
    1.5428   -0.1960    1.0202 N   0  0  0  0  0  0  0  0  0  0  0  0
    0.2152   -0.1444    1.1153 N   0  0  0  0  0  0  0  0  0  0  0  0
   -0.5566   -0.1297   -0.0009 C   0  0  0  0  0  0  0  0  0  0  0  0
  1  2  4  0
  2  3  4  0
  3  4  4  0
  4  5  4  0
  5  6  4  0
  6  1  4  0
M  END
$$$$

     RDKit          3D

  6  6  0  0  0  0  0  0  0  0999 V2000
    0.0480   -0.1686   -1.2151 N   0  0  0  0  0  0  0  0  0  0  0  0
    1.3756   -0.2207   -1.3094 N   0  0  0  0  0  0  0  0  0  0  0  0
    2.1521   -0.2354   -0.1940 C   0  0  0  0  0  0  0  0  0  0  0  0
    1.5428   -0.1960    1.0202 N   0  0  0  0  0  0  0  0  0  0  0  0
    0.2152   -0.1444    1.1153 N   0  0  0  0  0  0  0  0  0  0  0  0
   -0.5566   -0.1297   -0.0009 C   0  0  0  0  0  0  0  0  0  0  0  0
  1  2  4  0
  2  3  4  0
  3  4  4  0
  4  5  4  0
  5  6  4  0
  6  1  4  0
M  END
$$$$

     RDKit          3D

  6  6  0  0  0  0  0  0  0  0999 V2000
    0.2370    1.3922    0.0511 N   0  0  0  0  0  0  0  0  0  0  0  0
    1.5658    1.3017    0.0346 N   0  0  0  0  0  0  0  0  0  0  0  0
    2.1791    0.1034   -0.1527 C   0  0  0  0  0  0  0  0  0  0  0  0
    1.4054   -1.0009   -0.3232 N   0  0  0  0  0  0  0  0  0  0  0  0
    0.0765   -0.9111   -0.3073 N   0  0  0  0  0  0  0  0  0  0  0  0
   -0.5321    0.2873   -0.1197 C   0  0  0  0  0  0  0  0  0  0  0  0
  1  2  4  0
  2  3  4  0
  3  4  4  0
  4  5  4  0
  5  6  4  0
  6  1  4  0
M  END
$$$$

     RDKit          3D

  6  6  0  0  0  0  0  0  0  0999 V2000
    0.2370    1.3922    0.0511 N   0  0  0  0  0  0  0  0  0  0  0  0
    1.5658    1.3017    0.0346 N   0  0  0  0  0  0  0  0  0  0  0  0
    2.1791    0.1034   -0.1527 C   0  0  0  0  0  0  0  0  0  0  0  0
    1.4054   -1.0009   -0.3232 N   0  0  0  0  0  0  0  0  0  0  0  0
    0.0765   -0.9111   -0.3073 N   0  0  0  0  0  0  0  0  0  0  0  0
   -0.5321    0.2873   -0.1197 C   0  0  0  0  0  0  0  0  0  0  0  0
  1  2  4  0
  2  3  4  0
  3  4  4  0
  4  5  4  0
  5  6  4  0
  6  1  4  0
M  END
$$$$

     RDKit          3D

  6  6  0  0  0  0  0  0  0  0999 V2000
    0.2370    1.3922    0.0511 N   0  0  0  0  0  0  0  0  0  0  0  0
    1.5658    1.3017    0.0346 N   0  0  0  0  0  0  0  0  0  0  0  0
    2.1791    0.1034   -0.1527 C   0  0  0  0  0  0  0  0  0  0  0  0
    1.4054   -1.0009   -0.3232 N   0  0  0  0  0  0  0  0  0  0  0  0
    0.0765   -0.9111   -0.3073 N   0  0  0  0  0  0  0  0  0  0  0  0
   -0.5321    0.2873   -0.1197 C   0  0  0  0  0  0  0  0  0  0  0  0
  1  2  4  0
  2  3  4  0
  3  4  4  0
  4  5  4  0
  5  6  4  0
  6  1  4  0
M  END
$$$$

     RDKit          3D

  6  6  0  0  0  0  0  0  0  0999 V2000
    0.2047    0.3001   -0.9861 N   0  0  0  0  0  0  0  0  0  0  0  0
    1.5329    0.3464   -0.8960 N   0  0  0  0  0  0  0  0  0  0  0  0
    2.1713   -0.1154    0.2113 C   0  0  0  0  0  0  0  0  0  0  0  0
    1.4236   -0.6255    1.2251 N   0  0  0  0  0  0  0  0  0  0  0  0
    0.0953   -0.6718    1.1359 N   0  0  0  0  0  0  0  0  0  0  0  0
   -0.5385   -0.2099    0.0285 C   0  0  0  0  0  0  0  0  0  0  0  0
  1  2  4  0
  2  3  4  0
  3  4  4  0
  4  5  4  0
  5  6  4  0
  6  1  4  0
M  END
$$$$

     RDKit          3D

  6  6  0  0  0  0  0  0  0  0999 V2000
    0.2047    0.3001   -0.9861 N   0  0  0  0  0  0  0  0  0  0  0  0
    1.5329    0.3464   -0.8960 N   0  0  0  0  0  0  0  0  0  0  0  0
    2.1713   -0.1154    0.2113 C   0  0  0  0  0  0  0  0  0  0  0  0
    1.4236   -0.6255    1.2251 N   0  0  0  0  0  0  0  0  0  0  0  0
    0.0953   -0.6718    1.1359 N   0  0  0  0  0  0  0  0  0  0  0  0
   -0.5385   -0.2099    0.0285 C   0  0  0  0  0  0  0  0  0  0  0  0
  1  2  4  0
  2  3  4  0
  3  4  4  0
  4  5  4  0
  5  6  4  0
  6  1  4  0
M  END
$$$$

     RDKit          3D

  6  6  0  0  0  0  0  0  0  0999 V2000
    0.2047    0.3001   -0.9861 N   0  0  0  0  0  0  0  0  0  0  0  0
    1.5329    0.3464   -0.8960 N   0  0  0  0  0  0  0  0  0  0  0  0
    2.1713   -0.1154    0.2113 C   0  0  0  0  0  0  0  0  0  0  0  0
    1.4236   -0.6255    1.2251 N   0  0  0  0  0  0  0  0  0  0  0  0
    0.0953   -0.6718    1.1359 N   0  0  0  0  0  0  0  0  0  0  0  0
   -0.5385   -0.2099    0.0285 C   0  0  0  0  0  0  0  0  0  0  0  0
  1  2  4  0
  2  3  4  0
  3  4  4  0
  4  5  4  0
  5  6  4  0
  6  1  4  0
M  END
$$$$

     RDKit          3D

  6  6  0  0  0  0  0  0  0  0999 V2000
    0.0490    0.2759    1.1780 N   0  0  0  0  0  0  0  0  0  0  0  0
    1.3764    0.3441    1.2653 N   0  0  0  0  0  0  0  0  0  0  0  0
    2.1610    0.0122    0.2064 C   0  0  0  0  0  0  0  0  0  0  0  0
    1.5603   -0.3913   -0.9440 N   0  0  0  0  0  0  0  0  0  0  0  0
    0.2330   -0.4602   -1.0319 N   0  0  0  0  0  0  0  0  0  0  0  0
   -0.5471   -0.1277    0.0277 C   0  0  0  0  0  0  0  0  0  0  0  0
  1  2  4  0
  2  3  4  0
  3  4  4  0
  4  5  4  0
  5  6  4  0
  6  1  4  0
M  END
$$$$

     RDKit          3D

  6  6  0  0  0  0  0  0  0  0999 V2000
    0.0490    0.2759    1.1780 N   0  0  0  0  0  0  0  0  0  0  0  0
    1.3764    0.3441    1.2653 N   0  0  0  0  0  0  0  0  0  0  0  0
    2.1610    0.0122    0.2064 C   0  0  0  0  0  0  0  0  0  0  0  0
    1.5603   -0.3913   -0.9440 N   0  0  0  0  0  0  0  0  0  0  0  0
    0.2330   -0.4602   -1.0319 N   0  0  0  0  0  0  0  0  0  0  0  0
   -0.5471   -0.1277    0.0277 C   0  0  0  0  0  0  0  0  0  0  0  0
  1  2  4  0
  2  3  4  0
  3  4  4  0
  4  5  4  0
  5  6  4  0
  6  1  4  0
M  END
$$$$

     RDKit          3D

  6  6  0  0  0  0  0  0  0  0999 V2000
    0.0490    0.2759    1.1780 N   0  0  0  0  0  0  0  0  0  0  0  0
    1.3764    0.3441    1.2653 N   0  0  0  0  0  0  0  0  0  0  0  0
    2.1610    0.0122    0.2064 C   0  0  0  0  0  0  0  0  0  0  0  0
    1.5603   -0.3913   -0.9440 N   0  0  0  0  0  0  0  0  0  0  0  0
    0.2330   -0.4602   -1.0319 N   0  0  0  0  0  0  0  0  0  0  0  0
   -0.5471   -0.1277    0.0277 C   0  0  0  0  0  0  0  0  0  0  0  0
  1  2  4  0
  2  3  4  0
  3  4  4  0
  4  5  4  0
  5  6  4  0
  6  1  4  0
M  END
$$$$

     RDKit          3D

  6  6  0  0  0  0  0  0  0  0999 V2000
    0.1724    1.1513    0.6422 N   0  0  0  0  0  0  0  0  0  0  0  0
    1.4977    1.1916    0.5148 N   0  0  0  0  0  0  0  0  0  0  0  0
    2.1799    0.1328    0.0043 C   0  0  0  0  0  0  0  0  0  0  0  0
    1.4789   -0.9686   -0.3732 N   0  0  0  0  0  0  0  0  0  0  0  0
    0.1536   -1.0099   -0.2457 N   0  0  0  0  0  0  0  0  0  0  0  0
   -0.5240    0.0496    0.2644 C   0  0  0  0  0  0  0  0  0  0  0  0
  1  2  4  0
  2  3  4  0
  3  4  4  0
  4  5  4  0
  5  6  4  0
  6  1  4  0
M  END
$$$$

     RDKit          3D

  6  6  0  0  0  0  0  0  0  0999 V2000
    0.1724    1.1513    0.6422 N   0  0  0  0  0  0  0  0  0  0  0  0
    1.4977    1.1916    0.5148 N   0  0  0  0  0  0  0  0  0  0  0  0
    2.1799    0.1328    0.0043 C   0  0  0  0  0  0  0  0  0  0  0  0
    1.4789   -0.9686   -0.3732 N   0  0  0  0  0  0  0  0  0  0  0  0
    0.1536   -1.0099   -0.2457 N   0  0  0  0  0  0  0  0  0  0  0  0
   -0.5240    0.0496    0.2644 C   0  0  0  0  0  0  0  0  0  0  0  0
  1  2  4  0
  2  3  4  0
  3  4  4  0
  4  5  4  0
  5  6  4  0
  6  1  4  0
M  END
$$$$

     RDKit          3D

  6  6  0  0  0  0  0  0  0  0999 V2000
    0.1724    1.1513    0.6422 N   0  0  0  0  0  0  0  0  0  0  0  0
    1.4977    1.1916    0.5148 N   0  0  0  0  0  0  0  0  0  0  0  0
    2.1799    0.1328    0.0043 C   0  0  0  0  0  0  0  0  0  0  0  0
    1.4789   -0.9686   -0.3732 N   0  0  0  0  0  0  0  0  0  0  0  0
    0.1536   -1.0099   -0.2457 N   0  0  0  0  0  0  0  0  0  0  0  0
   -0.5240    0.0496    0.2644 C   0  0  0  0  0  0  0  0  0  0  0  0
  1  2  4  0
  2  3  4  0
  3  4  4  0
  4  5  4  0
  5  6  4  0
  6  1  4  0
M  END
$$$$

     RDKit          3D

  6  6  0  0  0  0  0  0  0  0999 V2000
    0.1338   -0.1037    1.1103 N   0  0  0  0  0  0  0  0  0  0  0  0
    1.4648   -0.1534    1.1229 N   0  0  0  0  0  0  0  0  0  0  0  0
    2.1687   -0.2370   -0.0367 C   0  0  0  0  0  0  0  0  0  0  0  0
    1.4833   -0.2687   -1.2099 N   0  0  0  0  0  0  0  0  0  0  0  0
    0.1523   -0.2186   -1.2233 N   0  0  0  0  0  0  0  0  0  0  0  0
   -0.5470   -0.1354   -0.0633 C   0  0  0  0  0  0  0  0  0  0  0  0
  1  2  4  0
  2  3  4  0
  3  4  4  0
  4  5  4  0
  5  6  4  0
  6  1  4  0
M  END
$$$$

     RDKit          3D

  6  6  0  0  0  0  0  0  0  0999 V2000
    0.1338   -0.1037    1.1103 N   0  0  0  0  0  0  0  0  0  0  0  0
    1.4648   -0.1534    1.1229 N   0  0  0  0  0  0  0  0  0  0  0  0
    2.1687   -0.2370   -0.0367 C   0  0  0  0  0  0  0  0  0  0  0  0
    1.4833   -0.2687   -1.2099 N   0  0  0  0  0  0  0  0  0  0  0  0
    0.1523   -0.2186   -1.2233 N   0  0  0  0  0  0  0  0  0  0  0  0
   -0.5470   -0.1354   -0.0633 C   0  0  0  0  0  0  0  0  0  0  0  0
  1  2  4  0
  2  3  4  0
  3  4  4  0
  4  5  4  0
  5  6  4  0
  6  1  4  0
M  END
$$$$

     RDKit          3D

  6  6  0  0  0  0  0  0  0  0999 V2000
    0.1338   -0.1037    1.1103 N   0  0  0  0  0  0  0  0  0  0  0  0
    1.4648   -0.1534    1.1229 N   0  0  0  0  0  0  0  0  0  0  0  0
    2.1687   -0.2370   -0.0367 C   0  0  0  0  0  0  0  0  0  0  0  0
    1.4833   -0.2687   -1.2099 N   0  0  0  0  0  0  0  0  0  0  0  0
    0.1523   -0.2186   -1.2233 N   0  0  0  0  0  0  0  0  0  0  0  0
   -0.5470   -0.1354   -0.0633 C   0  0  0  0  0  0  0  0  0  0  0  0
  1  2  4  0
  2  3  4  0
  3  4  4  0
  4  5  4  0
  5  6  4  0
  6  1  4  0
M  END
$$$$

     RDKit          3D

  6  6  0  0  0  0  0  0  0  0999 V2000
    0.1202   -0.8781   -0.5452 N   0  0  0  0  0  0  0  0  0  0  0  0
    1.4501   -0.9439   -0.5080 N   0  0  0  0  0  0  0  0  0  0  0  0
    2.1658   -0.1068    0.2883 C   0  0  0  0  0  0  0  0  0  0  0  0
    1.4936    0.7994    1.0459 N   0  0  0  0  0  0  0  0  0  0  0  0
    0.1637    0.8661    1.0089 N   0  0  0  0  0  0  0  0  0  0  0  0
   -0.5474    0.0284    0.2127 C   0  0  0  0  0  0  0  0  0  0  0  0
  1  2  4  0
  2  3  4  0
  3  4  4  0
  4  5  4  0
  5  6  4  0
  6  1  4  0
M  END
$$$$

     RDKit          3D

  6  6  0  0  0  0  0  0  0  0999 V2000
    0.1202   -0.8781   -0.5452 N   0  0  0  0  0  0  0  0  0  0  0  0
    1.4501   -0.9439   -0.5080 N   0  0  0  0  0  0  0  0  0  0  0  0
    2.1658   -0.1068    0.2883 C   0  0  0  0  0  0  0  0  0  0  0  0
    1.4936    0.7994    1.0459 N   0  0  0  0  0  0  0  0  0  0  0  0
    0.1637    0.8661    1.0089 N   0  0  0  0  0  0  0  0  0  0  0  0
   -0.5474    0.0284    0.2127 C   0  0  0  0  0  0  0  0  0  0  0  0
  1  2  4  0
  2  3  4  0
  3  4  4  0
  4  5  4  0
  5  6  4  0
  6  1  4  0
M  END
$$$$

     RDKit          3D

  6  6  0  0  0  0  0  0  0  0999 V2000
    0.1202   -0.8781   -0.5452 N   0  0  0  0  0  0  0  0  0  0  0  0
    1.4501   -0.9439   -0.5080 N   0  0  0  0  0  0  0  0  0  0  0  0
    2.1658   -0.1068    0.2883 C   0  0  0  0  0  0  0  0  0  0  0  0
    1.4936    0.7994    1.0459 N   0  0  0  0  0  0  0  0  0  0  0  0
    0.1637    0.8661    1.0089 N   0  0  0  0  0  0  0  0  0  0  0  0
   -0.5474    0.0284    0.2127 C   0  0  0  0  0  0  0  0  0  0  0  0
  1  2  4  0
  2  3  4  0
  3  4  4  0
  4  5  4  0
  5  6  4  0
  6  1  4  0
M  END
$$$$

     RDKit          3D

  6  6  0  0  0  0  0  0  0  0999 V2000
    0.1818    0.6085    0.9141 N   0  0  0  0  0  0  0  0  0  0  0  0
    1.5089    0.4971    0.9418 N   0  0  0  0  0  0  0  0  0  0  0  0
    2.1493   -0.3900    0.1356 C   0  0  0  0  0  0  0  0  0  0  0  0
    1.4046   -1.1611   -0.6998 N   0  0  0  0  0  0  0  0  0  0  0  0
    0.0776   -1.0501   -0.7284 N   0  0  0  0  0  0  0  0  0  0  0  0
   -0.5582   -0.1632    0.0783 C   0  0  0  0  0  0  0  0  0  0  0  0
  1  2  4  0
  2  3  4  0
  3  4  4  0
  4  5  4  0
  5  6  4  0
  6  1  4  0
M  END
$$$$

     RDKit          3D

  6  6  0  0  0  0  0  0  0  0999 V2000
    0.1818    0.6085    0.9141 N   0  0  0  0  0  0  0  0  0  0  0  0
    1.5089    0.4971    0.9418 N   0  0  0  0  0  0  0  0  0  0  0  0
    2.1493   -0.3900    0.1356 C   0  0  0  0  0  0  0  0  0  0  0  0
    1.4046   -1.1611   -0.6998 N   0  0  0  0  0  0  0  0  0  0  0  0
    0.0776   -1.0501   -0.7284 N   0  0  0  0  0  0  0  0  0  0  0  0
   -0.5582   -0.1632    0.0783 C   0  0  0  0  0  0  0  0  0  0  0  0
  1  2  4  0
  2  3  4  0
  3  4  4  0
  4  5  4  0
  5  6  4  0
  6  1  4  0
M  END
$$$$

     RDKit          3D

  6  6  0  0  0  0  0  0  0  0999 V2000
    0.1818    0.6085    0.9141 N   0  0  0  0  0  0  0  0  0  0  0  0
    1.5089    0.4971    0.9418 N   0  0  0  0  0  0  0  0  0  0  0  0
    2.1493   -0.3900    0.1356 C   0  0  0  0  0  0  0  0  0  0  0  0
    1.4046   -1.1611   -0.6998 N   0  0  0  0  0  0  0  0  0  0  0  0
    0.0776   -1.0501   -0.7284 N   0  0  0  0  0  0  0  0  0  0  0  0
   -0.5582   -0.1632    0.0783 C   0  0  0  0  0  0  0  0  0  0  0  0
  1  2  4  0
  2  3  4  0
  3  4  4  0
  4  5  4  0
  5  6  4  0
  6  1  4  0
M  END
$$$$

     RDKit          3D

  6  6  0  0  0  0  0  0  0  0999 V2000
    0.2029    0.0203   -1.3069 N   0  0  0  0  0  0  0  0  0  0  0  0
    1.5272   -0.1083   -1.2423 N   0  0  0  0  0  0  0  0  0  0  0  0
    2.1828    0.0328   -0.0602 C   0  0  0  0  0  0  0  0  0  0  0  0
    1.4563    0.3086    1.0548 N   0  0  0  0  0  0  0  0  0  0  0  0
    0.1321    0.4378    0.9910 N   0  0  0  0  0  0  0  0  0  0  0  0
   -0.5189    0.2959   -0.1914 C   0  0  0  0  0  0  0  0  0  0  0  0
  1  2  4  0
  2  3  4  0
  3  4  4  0
  4  5  4  0
  5  6  4  0
  6  1  4  0
M  END
$$$$

     RDKit          3D

  6  6  0  0  0  0  0  0  0  0999 V2000
    0.2029    0.0203   -1.3069 N   0  0  0  0  0  0  0  0  0  0  0  0
    1.5272   -0.1083   -1.2423 N   0  0  0  0  0  0  0  0  0  0  0  0
    2.1828    0.0328   -0.0602 C   0  0  0  0  0  0  0  0  0  0  0  0
    1.4563    0.3086    1.0548 N   0  0  0  0  0  0  0  0  0  0  0  0
    0.1321    0.4378    0.9910 N   0  0  0  0  0  0  0  0  0  0  0  0
   -0.5189    0.2959   -0.1914 C   0  0  0  0  0  0  0  0  0  0  0  0
  1  2  4  0
  2  3  4  0
  3  4  4  0
  4  5  4  0
  5  6  4  0
  6  1  4  0
M  END
$$$$

     RDKit          3D

  6  6  0  0  0  0  0  0  0  0999 V2000
    0.2029    0.0203   -1.3069 N   0  0  0  0  0  0  0  0  0  0  0  0
    1.5272   -0.1083   -1.2423 N   0  0  0  0  0  0  0  0  0  0  0  0
    2.1828    0.0328   -0.0602 C   0  0  0  0  0  0  0  0  0  0  0  0
    1.4563    0.3086    1.0548 N   0  0  0  0  0  0  0  0  0  0  0  0
    0.1321    0.4378    0.9910 N   0  0  0  0  0  0  0  0  0  0  0  0
   -0.5189    0.2959   -0.1914 C   0  0  0  0  0  0  0  0  0  0  0  0
  1  2  4  0
  2  3  4  0
  3  4  4  0
  4  5  4  0
  5  6  4  0
  6  1  4  0
M  END
$$$$

     RDKit          3D

  6  6  0  0  0  0  0  0  0  0999 V2000
    0.1693    1.2088   -0.4816 N   0  0  0  0  0  0  0  0  0  0  0  0
    1.4988    1.1574   -0.5464 N   0  0  0  0  0  0  0  0  0  0  0  0
    2.1818    0.1152   -0.0038 C   0  0  0  0  0  0  0  0  0  0  0  0
    1.4772   -0.8737    0.6067 N   0  0  0  0  0  0  0  0  0  0  0  0
    0.1478   -0.8229    0.6723 N   0  0  0  0  0  0  0  0  0  0  0  0
   -0.5306    0.2195    0.1292 C   0  0  0  0  0  0  0  0  0  0  0  0
  1  2  4  0
  2  3  4  0
  3  4  4  0
  4  5  4  0
  5  6  4  0
  6  1  4  0
M  END
$$$$

     RDKit          3D

  6  6  0  0  0  0  0  0  0  0999 V2000
    0.1693    1.2088   -0.4816 N   0  0  0  0  0  0  0  0  0  0  0  0
    1.4988    1.1574   -0.5464 N   0  0  0  0  0  0  0  0  0  0  0  0
    2.1818    0.1152   -0.0038 C   0  0  0  0  0  0  0  0  0  0  0  0
    1.4772   -0.8737    0.6067 N   0  0  0  0  0  0  0  0  0  0  0  0
    0.1478   -0.8229    0.6723 N   0  0  0  0  0  0  0  0  0  0  0  0
   -0.5306    0.2195    0.1292 C   0  0  0  0  0  0  0  0  0  0  0  0
  1  2  4  0
  2  3  4  0
  3  4  4  0
  4  5  4  0
  5  6  4  0
  6  1  4  0
M  END
$$$$

     RDKit          3D

  6  6  0  0  0  0  0  0  0  0999 V2000
    0.1693    1.2088   -0.4816 N   0  0  0  0  0  0  0  0  0  0  0  0
    1.4988    1.1574   -0.5464 N   0  0  0  0  0  0  0  0  0  0  0  0
    2.1818    0.1152   -0.0038 C   0  0  0  0  0  0  0  0  0  0  0  0
    1.4772   -0.8737    0.6067 N   0  0  0  0  0  0  0  0  0  0  0  0
    0.1478   -0.8229    0.6723 N   0  0  0  0  0  0  0  0  0  0  0  0
   -0.5306    0.2195    0.1292 C   0  0  0  0  0  0  0  0  0  0  0  0
  1  2  4  0
  2  3  4  0
  3  4  4  0
  4  5  4  0
  5  6  4  0
  6  1  4  0
M  END
$$$$
