
     RDKit          3D

  8  8  0  0  0  0  0  0  0  0999 V2000
   -1.2483    2.5994   -1.4109 Cl  0  0  0  0  0  0  0  0  0  0  0  0
   -0.5758    1.1445   -0.6803 C   0  0  0  0  0  0  0  0  0  0  0  0
    0.8159    1.0174   -0.6230 C   0  0  0  0  0  0  0  0  0  0  0  0
    1.4129   -0.1383   -0.0954 C   0  0  0  0  0  0  0  0  0  0  0  0
    0.5913   -1.1908    0.3584 C   0  0  0  0  0  0  0  0  0  0  0  0
    1.2637   -2.7079    0.9490 Cl  0  0  0  0  0  0  0  0  0  0  0  0
   -0.8004   -1.0638    0.3007 C   0  0  0  0  0  0  0  0  0  0  0  0
   -1.3974    0.1018   -0.2045 C   0  0  0  0  0  0  0  0  0  0  0  0
  1  2  1  0
  2  3  4  0
  3  4  4  0
  4  5  4  0
  5  6  1  0
  5  7  4  0
  7  8  4  0
  8  2  4  0
M  END
$$$$

     RDKit          3D

  8  8  0  0  0  0  0  0  0  0999 V2000
   -1.4554   -2.4780   -1.2865 Cl  0  0  0  0  0  0  0  0  0  0  0  0
   -0.6667   -1.0845   -0.5523 C   0  0  0  0  0  0  0  0  0  0  0  0
    0.7314   -1.0492   -0.5374 C   0  0  0  0  0  0  0  0  0  0  0  0
    1.4191    0.0109    0.0739 C   0  0  0  0  0  0  0  0  0  0  0  0
    0.6830    1.0378    0.7002 C   0  0  0  0  0  0  0  0  0  0  0  0
    1.4720    2.3531    1.5662 Cl  0  0  0  0  0  0  0  0  0  0  0  0
   -0.7152    1.0023    0.6857 C   0  0  0  0  0  0  0  0  0  0  0  0
   -1.4029   -0.0453    0.0534 C   0  0  0  0  0  0  0  0  0  0  0  0
  1  2  1  0
  2  3  4  0
  3  4  4  0
  4  5  4  0
  5  6  1  0
  5  7  4  0
  7  8  4  0
  8  2  4  0
M  END
$$$$

     RDKit          3D

  8  8  0  0  0  0  0  0  0  0999 V2000
   -1.6407    2.6083    0.7854 Cl  0  0  0  0  0  0  0  0  0  0  0  0
   -0.7478    1.1421    0.3905 C   0  0  0  0  0  0  0  0  0  0  0  0
    0.6497    1.1957    0.4071 C   0  0  0  0  0  0  0  0  0  0  0  0
    1.4180    0.0501    0.1471 C   0  0  0  0  0  0  0  0  0  0  0  0
    0.7642   -1.1727   -0.1095 C   0  0  0  0  0  0  0  0  0  0  0  0
    1.6564   -2.6715   -0.3548 Cl  0  0  0  0  0  0  0  0  0  0  0  0
   -0.6334   -1.2264   -0.1257 C   0  0  0  0  0  0  0  0  0  0  0  0
   -1.4016   -0.0755    0.1105 C   0  0  0  0  0  0  0  0  0  0  0  0
  1  2  1  0
  2  3  4  0
  3  4  4  0
  4  5  4  0
  5  6  1  0
  5  7  4  0
  7  8  4  0
  8  2  4  0
M  END
$$$$

     RDKit          3D

  8  8  0  0  0  0  0  0  0  0999 V2000
    1.7624    1.8289    1.8727 Cl  0  0  0  0  0  0  0  0  0  0  0  0
    0.8011    0.7737    0.8407 C   0  0  0  0  0  0  0  0  0  0  0  0
   -0.5924    0.8638    0.9200 C   0  0  0  0  0  0  0  0  0  0  0  0
   -1.4134    0.0956    0.0797 C   0  0  0  0  0  0  0  0  0  0  0  0
   -0.8173   -0.7846   -0.8468 C   0  0  0  0  0  0  0  0  0  0  0  0
   -1.7785   -1.8407   -1.8782 Cl  0  0  0  0  0  0  0  0  0  0  0  0
    0.5762   -0.8748   -0.9262 C   0  0  0  0  0  0  0  0  0  0  0  0
    1.3971   -0.1064   -0.0860 C   0  0  0  0  0  0  0  0  0  0  0  0
  1  2  1  0
  2  3  4  0
  3  4  4  0
  4  5  4  0
  5  6  1  0
  5  7  4  0
  7  8  4  0
  8  2  4  0
M  END
$$$$

     RDKit          3D

  8  8  0  0  0  0  0  0  0  0999 V2000
   -1.3362   -2.8278   -0.5164 Cl  0  0  0  0  0  0  0  0  0  0  0  0
   -0.6150   -1.2425   -0.2525 C   0  0  0  0  0  0  0  0  0  0  0  0
    0.7802   -1.1488   -0.2226 C   0  0  0  0  0  0  0  0  0  0  0  0
    1.4162    0.0942   -0.0790 C   0  0  0  0  0  0  0  0  0  0  0  0
    0.6305    1.2583    0.0473 C   0  0  0  0  0  0  0  0  0  0  0  0
    1.3515    2.8434    0.3124 Cl  0  0  0  0  0  0  0  0  0  0  0  0
   -0.7647    1.1647    0.0175 C   0  0  0  0  0  0  0  0  0  0  0  0
   -1.4008   -0.0783   -0.1263 C   0  0  0  0  0  0  0  0  0  0  0  0
  1  2  1  0
  2  3  4  0
  3  4  4  0
  4  5  4  0
  5  6  1  0
  5  7  4  0
  7  8  4  0
  8  2  4  0
M  END
$$$$

     RDKit          3D

  8  8  0  0  0  0  0  0  0  0999 V2000
   -1.7364   -1.0000    2.4824 Cl  0  0  0  0  0  0  0  0  0  0  0  0
   -0.7891   -0.4956    1.0857 C   0  0  0  0  0  0  0  0  0  0  0  0
    0.6001   -0.4121    1.2255 C   0  0  0  0  0  0  0  0  0  0  0  0
    1.4060    0.0285    0.1640 C   0  0  0  0  0  0  0  0  0  0  0  0
    0.7969    0.4133   -1.0482 C   0  0  0  0  0  0  0  0  0  0  0  0
    1.7301    1.0623   -2.3937 Cl  0  0  0  0  0  0  0  0  0  0  0  0
   -0.5923    0.3302   -1.1878 C   0  0  0  0  0  0  0  0  0  0  0  0
   -1.3960   -0.1336   -0.1346 C   0  0  0  0  0  0  0  0  0  0  0  0
  1  2  1  0
  2  3  4  0
  3  4  4  0
  4  5  4  0
  5  6  1  0
  5  7  4  0
  7  8  4  0
  8  2  4  0
M  END
$$$$

     RDKit          3D

  8  8  0  0  0  0  0  0  0  0999 V2000
   -1.4941   -2.3814   -1.4140 Cl  0  0  0  0  0  0  0  0  0  0  0  0
   -0.6861   -1.0657   -0.5662 C   0  0  0  0  0  0  0  0  0  0  0  0
    0.7101   -1.0907   -0.4867 C   0  0  0  0  0  0  0  0  0  0  0  0
    1.4165   -0.0402    0.1197 C   0  0  0  0  0  0  0  0  0  0  0  0
    0.7006    1.0462    0.6636 C   0  0  0  0  0  0  0  0  0  0  0  0
    1.5083    2.3620    1.5115 Cl  0  0  0  0  0  0  0  0  0  0  0  0
   -0.6956    1.0712    0.5842 C   0  0  0  0  0  0  0  0  0  0  0  0
   -1.4019    0.0207   -0.0223 C   0  0  0  0  0  0  0  0  0  0  0  0
  1  2  1  0
  2  3  4  0
  3  4  4  0
  4  5  4  0
  5  6  1  0
  5  7  4  0
  7  8  4  0
  8  2  4  0
M  END
$$$$

     RDKit          3D

  8  8  0  0  0  0  0  0  0  0999 V2000
   -1.3688    2.6224    1.2474 Cl  0  0  0  0  0  0  0  0  0  0  0  0
   -0.6268    1.1398    0.6525 C   0  0  0  0  0  0  0  0  0  0  0  0
    0.7678    1.0918    0.5575 C   0  0  0  0  0  0  0  0  0  0  0  0
    1.4160   -0.0368    0.0318 C   0  0  0  0  0  0  0  0  0  0  0  0
    0.6439   -1.1374   -0.3940 C   0  0  0  0  0  0  0  0  0  0  0  0
    1.3857   -2.6201   -0.9890 Cl  0  0  0  0  0  0  0  0  0  0  0  0
   -0.7507   -1.0894   -0.2990 C   0  0  0  0  0  0  0  0  0  0  0  0
   -1.3988    0.0392    0.2267 C   0  0  0  0  0  0  0  0  0  0  0  0
  1  2  1  0
  2  3  4  0
  3  4  4  0
  4  5  4  0
  5  6  1  0
  5  7  4  0
  7  8  4  0
  8  2  4  0
M  END
$$$$

     RDKit          3D

  8  8  0  0  0  0  0  0  0  0999 V2000
   -1.2731    0.6112    2.7744 Cl  0  0  0  0  0  0  0  0  0  0  0  0
   -0.5871    0.1735    1.2121 C   0  0  0  0  0  0  0  0  0  0  0  0
    0.8049    0.1841    1.0761 C   0  0  0  0  0  0  0  0  0  0  0  0
    1.4143   -0.1993   -0.1288 C   0  0  0  0  0  0  0  0  0  0  0  0
    0.6059   -0.6226   -1.2040 C   0  0  0  0  0  0  0  0  0  0  0  0
    1.2978   -1.2045   -2.7157 Cl  0  0  0  0  0  0  0  0  0  0  0  0
   -0.7861   -0.6336   -1.0679 C   0  0  0  0  0  0  0  0  0  0  0  0
   -1.3964   -0.2272    0.1291 C   0  0  0  0  0  0  0  0  0  0  0  0
  1  2  1  0
  2  3  4  0
  3  4  4  0
  4  5  4  0
  5  6  1  0
  5  7  4  0
  7  8  4  0
  8  2  4  0
M  END
$$$$

     RDKit          3D

  8  8  0  0  0  0  0  0  0  0999 V2000
   -1.3179    2.8343    0.3367 Cl  0  0  0  0  0  0  0  0  0  0  0  0
   -0.6070    1.2352    0.1363 C   0  0  0  0  0  0  0  0  0  0  0  0
    0.7876    1.1279    0.1392 C   0  0  0  0  0  0  0  0  0  0  0  0
    1.4158   -0.1083   -0.0786 C   0  0  0  0  0  0  0  0  0  0  0  0
    0.6227   -1.2548   -0.2915 C   0  0  0  0  0  0  0  0  0  0  0  0
    1.3335   -2.8541   -0.4908 Cl  0  0  0  0  0  0  0  0  0  0  0  0
   -0.7718   -1.1475   -0.2944 C   0  0  0  0  0  0  0  0  0  0  0  0
   -1.4000    0.0888   -0.0769 C   0  0  0  0  0  0  0  0  0  0  0  0
  1  2  1  0
  2  3  4  0
  3  4  4  0
  4  5  4  0
  5  6  1  0
  5  7  4  0
  7  8  4  0
  8  2  4  0
M  END
$$$$

     RDKit          3D

  8  8  0  0  0  0  0  0  0  0999 V2000
   -1.5535   -1.0901   -2.4398 Cl  0  0  0  0  0  0  0  0  0  0  0  0
   -0.7100   -0.4949   -1.0126 C   0  0  0  0  0  0  0  0  0  0  0  0
    0.6886   -0.5095   -1.0184 C   0  0  0  0  0  0  0  0  0  0  0  0
    1.4191   -0.0052    0.0690 C   0  0  0  0  0  0  0  0  0  0  0  0
    0.7261    0.5439    1.1676 C   0  0  0  0  0  0  0  0  0  0  0  0
    1.5706    1.2782    2.5278 Cl  0  0  0  0  0  0  0  0  0  0  0  0
   -0.6725    0.5589    1.1731 C   0  0  0  0  0  0  0  0  0  0  0  0
   -1.4031    0.0323    0.0965 C   0  0  0  0  0  0  0  0  0  0  0  0
  1  2  1  0
  2  3  4  0
  3  4  4  0
  4  5  4  0
  5  6  1  0
  5  7  4  0
  7  8  4  0
  8  2  4  0
M  END
$$$$

     RDKit          3D

  8  8  0  0  0  0  0  0  0  0999 V2000
   -1.3760   -0.6335    2.5788 Cl  0  0  0  0  0  0  0  0  0  0  0  0
   -0.6339   -0.2905    1.0186 C   0  0  0  0  0  0  0  0  0  0  0  0
    0.7435   -0.4930    0.8840 C   0  0  0  0  0  0  0  0  0  0  0  0
    1.4019   -0.1935   -0.3190 C   0  0  0  0  0  0  0  0  0  0  0  0
    0.6614    0.3412   -1.3935 C   0  0  0  0  0  0  0  0  0  0  0  0
    1.4295    0.8274   -2.9022 Cl  0  0  0  0  0  0  0  0  0  0  0  0
   -0.7159    0.5440   -1.2588 C   0  0  0  0  0  0  0  0  0  0  0  0
   -1.3784    0.2215   -0.0640 C   0  0  0  0  0  0  0  0  0  0  0  0
  1  2  1  0
  2  3  4  0
  3  4  4  0
  4  5  4  0
  5  6  1  0
  5  7  4  0
  7  8  4  0
  8  2  4  0
M  END
$$$$

     RDKit          3D

  8  8  0  0  0  0  0  0  0  0999 V2000
   -1.4671   -1.8590    2.1316 Cl  0  0  0  0  0  0  0  0  0  0  0  0
   -0.6696   -0.8356    0.9402 C   0  0  0  0  0  0  0  0  0  0  0  0
    0.7211   -0.7037    1.0084 C   0  0  0  0  0  0  0  0  0  0  0  0
    1.4102    0.1341    0.1176 C   0  0  0  0  0  0  0  0  0  0  0  0
    0.6804    0.8678   -0.8404 C   0  0  0  0  0  0  0  0  0  0  0  0
    1.4617    2.0081   -1.9322 Cl  0  0  0  0  0  0  0  0  0  0  0  0
   -0.7104    0.7362   -0.9084 C   0  0  0  0  0  0  0  0  0  0  0  0
   -1.3968   -0.1203   -0.0335 C   0  0  0  0  0  0  0  0  0  0  0  0
  1  2  1  0
  2  3  4  0
  3  4  4  0
  4  5  4  0
  5  6  1  0
  5  7  4  0
  7  8  4  0
  8  2  4  0
M  END
$$$$

     RDKit          3D

  6  6  0  0  0  0  0  0  0  0999 V2000
    3.1001    0.5186    0.6410 C   0  0  0  0  0  0  0  0  0  0  0  0
    1.7350    0.4483    0.9712 C   0  0  0  0  0  0  0  0  0  0  0  0
    1.0090    1.6282    1.1960 C   0  0  0  0  0  0  0  0  0  0  0  0
    1.6683    2.8616    1.1172 C   0  0  0  0  0  0  0  0  0  0  0  0
    3.0229    2.8962    0.7874 C   0  0  0  0  0  0  0  0  0  0  0  0
    3.6974    1.7404    0.5533 N   0  0  0  0  0  0  0  0  0  0  0  0
  1  2  4  0
  2  3  4  0
  3  4  4  0
  4  5  4  0
  5  6  4  0
  6  1  4  0
M  END
$$$$

     RDKit          3D

  6  6  0  0  0  0  0  0  0  0999 V2000
    3.0607    1.0283    0.0331 C   0  0  0  0  0  0  0  0  0  0  0  0
    1.9051    0.4969    0.6327 C   0  0  0  0  0  0  0  0  0  0  0  0
    1.1569    1.2812    1.5241 C   0  0  0  0  0  0  0  0  0  0  0  0
    1.5943    2.5772    1.8265 C   0  0  0  0  0  0  0  0  0  0  0  0
    2.7445    3.0740    1.2144 C   0  0  0  0  0  0  0  0  0  0  0  0
    3.4386    2.3016    0.3384 N   0  0  0  0  0  0  0  0  0  0  0  0
  1  2  4  0
  2  3  4  0
  3  4  4  0
  4  5  4  0
  5  6  4  0
  6  1  4  0
M  END
$$$$

     RDKit          3D

  6  6  0  0  0  0  0  0  0  0999 V2000
    3.0517   -0.5722   -0.8961 C   0  0  0  0  0  0  0  0  0  0  0  0
    1.8627    0.1784   -0.9145 C   0  0  0  0  0  0  0  0  0  0  0  0
    1.0608    0.1887   -2.0662 C   0  0  0  0  0  0  0  0  0  0  0  0
    1.4772   -0.5286   -3.1950 C   0  0  0  0  0  0  0  0  0  0  0  0
    2.6617   -1.2628   -3.1436 C   0  0  0  0  0  0  0  0  0  0  0  0
    3.4086   -1.2734   -2.0088 N   0  0  0  0  0  0  0  0  0  0  0  0
  1  2  4  0
  2  3  4  0
  3  4  4  0
  4  5  4  0
  5  6  4  0
  6  1  4  0
M  END
$$$$

     RDKit          3D

  6  6  0  0  0  0  0  0  0  0999 V2000
    3.3031   -0.8768   -0.1541 C   0  0  0  0  0  0  0  0  0  0  0  0
    2.2623   -0.0655   -0.6417 C   0  0  0  0  0  0  0  0  0  0  0  0
    1.0192   -0.6370   -0.9497 C   0  0  0  0  0  0  0  0  0  0  0  0
    0.8384   -2.0162   -0.7792 C   0  0  0  0  0  0  0  0  0  0  0  0
    1.8868   -2.7895   -0.2829 C   0  0  0  0  0  0  0  0  0  0  0  0
    3.0784   -2.2101    0.0171 N   0  0  0  0  0  0  0  0  0  0  0  0
  1  2  4  0
  2  3  4  0
  3  4  4  0
  4  5  4  0
  5  6  4  0
  6  1  4  0
M  END
$$$$

     RDKit          3D

  6  6  0  0  0  0  0  0  0  0999 V2000
    3.3169   -0.5765   -0.4730 C   0  0  0  0  0  0  0  0  0  0  0  0
    2.2206    0.2953   -0.6056 C   0  0  0  0  0  0  0  0  0  0  0  0
    0.9839   -0.2015   -1.0416 C   0  0  0  0  0  0  0  0  0  0  0  0
    0.8640   -1.5626   -1.3533 C   0  0  0  0  0  0  0  0  0  0  0  0
    1.9669   -2.4014   -1.1998 C   0  0  0  0  0  0  0  0  0  0  0  0
    3.1515   -1.8972   -0.7663 N   0  0  0  0  0  0  0  0  0  0  0  0
  1  2  4  0
  2  3  4  0
  3  4  4  0
  4  5  4  0
  5  6  4  0
  6  1  4  0
M  END
$$$$

     RDKit          3D

  6  6  0  0  0  0  0  0  0  0999 V2000
    3.3640   -0.2503   -0.5799 C   0  0  0  0  0  0  0  0  0  0  0  0
    2.3147   -0.3117    0.3552 C   0  0  0  0  0  0  0  0  0  0  0  0
    1.1544   -1.0394    0.0540 C   0  0  0  0  0  0  0  0  0  0  0  0
    1.0652   -1.7085   -1.1741 C   0  0  0  0  0  0  0  0  0  0  0  0
    2.1182   -1.6175   -2.0832 C   0  0  0  0  0  0  0  0  0  0  0  0
    3.2275   -0.8981   -1.7713 N   0  0  0  0  0  0  0  0  0  0  0  0
  1  2  4  0
  2  3  4  0
  3  4  4  0
  4  5  4  0
  5  6  4  0
  6  1  4  0
M  END
$$$$

     RDKit          3D

  6  6  0  0  0  0  0  0  0  0999 V2000
    3.3841   -0.0632   -0.5095 C   0  0  0  0  0  0  0  0  0  0  0  0
    2.3218    0.2492    0.3584 C   0  0  0  0  0  0  0  0  0  0  0  0
    1.2146    0.9620   -0.1236 C   0  0  0  0  0  0  0  0  0  0  0  0
    1.1913    1.3658   -1.4654 C   0  0  0  0  0  0  0  0  0  0  0  0
    2.2550    1.0298   -2.3016 C   0  0  0  0  0  0  0  0  0  0  0  0
    3.3117    0.3300   -1.8125 N   0  0  0  0  0  0  0  0  0  0  0  0
  1  2  4  0
  2  3  4  0
  3  4  4  0
  4  5  4  0
  5  6  4  0
  6  1  4  0
M  END
$$$$

     RDKit          3D

  6  6  0  0  0  0  0  0  0  0999 V2000
    3.3582   -0.1184   -0.5579 C   0  0  0  0  0  0  0  0  0  0  0  0
    2.2717   -0.6446    0.1646 C   0  0  0  0  0  0  0  0  0  0  0  0
    1.0759   -0.9518   -0.5004 C   0  0  0  0  0  0  0  0  0  0  0  0
    0.9878   -0.7419   -1.8832 C   0  0  0  0  0  0  0  0  0  0  0  0
    2.0791   -0.2081   -2.5671 C   0  0  0  0  0  0  0  0  0  0  0  0
    3.2231    0.0903   -1.8980 N   0  0  0  0  0  0  0  0  0  0  0  0
  1  2  4  0
  2  3  4  0
  3  4  4  0
  4  5  4  0
  5  6  4  0
  6  1  4  0
M  END
$$$$

     RDKit          3D

  6  6  0  0  0  0  0  0  0  0999 V2000
    3.4050   -0.2916    0.2423 C   0  0  0  0  0  0  0  0  0  0  0  0
    2.2730    0.5233    0.4263 C   0  0  0  0  0  0  0  0  0  0  0  0
    1.1503    0.0157    1.0959 C   0  0  0  0  0  0  0  0  0  0  0  0
    1.1805   -1.2970    1.5857 C   0  0  0  0  0  0  0  0  0  0  0  0
    2.3136   -2.0817    1.3761 C   0  0  0  0  0  0  0  0  0  0  0  0
    3.3846   -1.5695    0.7157 N   0  0  0  0  0  0  0  0  0  0  0  0
  1  2  4  0
  2  3  4  0
  3  4  4  0
  4  5  4  0
  5  6  4  0
  6  1  4  0
M  END
$$$$

     RDKit          3D

  6  6  0  0  0  0  0  0  0  0999 V2000
    3.3090    0.6998   -0.5017 C   0  0  0  0  0  0  0  0  0  0  0  0
    2.2982   -0.2773   -0.4481 C   0  0  0  0  0  0  0  0  0  0  0  0
    1.0757   -0.0516   -1.0970 C   0  0  0  0  0  0  0  0  0  0  0  0
    0.8859    1.1436   -1.8036 C   0  0  0  0  0  0  0  0  0  0  0  0
    1.9037    2.0960   -1.8270 C   0  0  0  0  0  0  0  0  0  0  0  0
    3.0753    1.8573   -1.1821 N   0  0  0  0  0  0  0  0  0  0  0  0
  1  2  4  0
  2  3  4  0
  3  4  4  0
  4  5  4  0
  5  6  4  0
  6  1  4  0
M  END
$$$$

     RDKit          3D

  6  6  0  0  0  0  0  0  0  0999 V2000
   -3.3546    0.4931   -0.4160 C   0  0  0  0  0  0  0  0  0  0  0  0
   -2.2410   -0.3441   -0.6119 C   0  0  0  0  0  0  0  0  0  0  0  0
   -1.0380    0.1965   -1.0882 C   0  0  0  0  0  0  0  0  0  0  0  0
   -0.9692    1.5663   -1.3762 C   0  0  0  0  0  0  0  0  0  0  0  0
   -2.0876    2.3700   -1.1598 C   0  0  0  0  0  0  0  0  0  0  0  0
   -3.2385    1.8235   -0.6883 N   0  0  0  0  0  0  0  0  0  0  0  0
  1  2  4  0
  2  3  4  0
  3  4  4  0
  4  5  4  0
  5  6  4  0
  6  1  4  0
M  END
$$$$

     RDKit          3D

  6  6  0  0  0  0  0  0  0  0999 V2000
    3.3092   -0.6793    0.5892 C   0  0  0  0  0  0  0  0  0  0  0  0
    2.3064    0.2981    0.4540 C   0  0  0  0  0  0  0  0  0  0  0  0
    1.0904    0.1482    1.1361 C   0  0  0  0  0  0  0  0  0  0  0  0
    0.8991   -0.9716    1.9567 C   0  0  0  0  0  0  0  0  0  0  0  0
    1.9086   -1.9276    2.0595 C   0  0  0  0  0  0  0  0  0  0  0  0
    3.0739   -1.7638    1.3806 N   0  0  0  0  0  0  0  0  0  0  0  0
  1  2  4  0
  2  3  4  0
  3  4  4  0
  4  5  4  0
  5  6  4  0
  6  1  4  0
M  END
$$$$

     RDKit          3D

  6  6  0  0  0  0  0  0  0  0999 V2000
   -3.3735   -0.5028   -0.1416 C   0  0  0  0  0  0  0  0  0  0  0  0
   -2.2474    0.2177   -0.5799 C   0  0  0  0  0  0  0  0  0  0  0  0
   -1.0705   -0.4664   -0.9167 C   0  0  0  0  0  0  0  0  0  0  0  0
   -1.0440   -1.8651   -0.8354 C   0  0  0  0  0  0  0  0  0  0  0  0
   -2.1817   -2.5494   -0.4099 C   0  0  0  0  0  0  0  0  0  0  0  0
   -3.3057   -1.8626   -0.0777 N   0  0  0  0  0  0  0  0  0  0  0  0
  1  2  4  0
  2  3  4  0
  3  4  4  0
  4  5  4  0
  5  6  4  0
  6  1  4  0
M  END
$$$$

     RDKit          3D

  6  6  0  0  0  0  0  0  0  0999 V2000
    3.3511   -0.6526   -0.2783 C   0  0  0  0  0  0  0  0  0  0  0  0
    2.3294    0.3145   -0.2895 C   0  0  0  0  0  0  0  0  0  0  0  0
    1.1862    0.1111   -1.0759 C   0  0  0  0  0  0  0  0  0  0  0  0
    1.0919   -1.0456   -1.8613 C   0  0  0  0  0  0  0  0  0  0  0  0
    2.1283   -1.9778   -1.8372 C   0  0  0  0  0  0  0  0  0  0  0  0
    3.2200   -1.7631   -1.0576 N   0  0  0  0  0  0  0  0  0  0  0  0
  1  2  4  0
  2  3  4  0
  3  4  4  0
  4  5  4  0
  5  6  4  0
  6  1  4  0
M  END
$$$$

     RDKit          3D

  8  8  0  0  0  0  0  0  0  0999 V2000
   -1.5763   -1.5512    1.8909 C   0  0  0  0  0  0  0  0  0  0  0  0
   -0.8278   -0.6785    0.9162 C   0  0  0  0  0  0  0  0  0  0  0  0
    0.5711   -0.7583    0.8576 C   0  0  0  0  0  0  0  0  0  0  0  0
    1.2917    0.0092   -0.0637 C   0  0  0  0  0  0  0  0  0  0  0  0
    0.6128    0.8619   -0.9407 C   0  0  0  0  0  0  0  0  0  0  0  0
   -0.7854    0.9623   -0.9018 C   0  0  0  0  0  0  0  0  0  0  0  0
   -1.4870    1.8761   -1.8734 C   0  0  0  0  0  0  0  0  0  0  0  0
   -1.5145    0.1892    0.0331 C   0  0  0  0  0  0  0  0  0  0  0  0
  1  2  1  0
  2  3  4  0
  3  4  4  0
  4  5  4  0
  5  6  4  0
  6  7  1  0
  6  8  4  0
  8  2  4  0
M  END
$$$$

     RDKit          3D

  8  8  0  0  0  0  0  0  0  0999 V2000
    1.5720   -2.4622    0.5055 C   0  0  0  0  0  0  0  0  0  0  0  0
    0.8306   -1.1635    0.3188 C   0  0  0  0  0  0  0  0  0  0  0  0
   -0.5714   -1.1722    0.2850 C   0  0  0  0  0  0  0  0  0  0  0  0
   -1.2879    0.0138    0.0923 C   0  0  0  0  0  0  0  0  0  0  0  0
   -0.6020    1.2215   -0.0755 C   0  0  0  0  0  0  0  0  0  0  0  0
    0.7996    1.2581   -0.0473 C   0  0  0  0  0  0  0  0  0  0  0  0
    1.5074    2.5684   -0.2801 C   0  0  0  0  0  0  0  0  0  0  0  0
    1.5248    0.0585    0.1508 C   0  0  0  0  0  0  0  0  0  0  0  0
  1  2  1  0
  2  3  4  0
  3  4  4  0
  4  5  4  0
  5  6  4  0
  6  7  1  0
  6  8  4  0
  8  2  4  0
M  END
$$$$

     RDKit          3D

  8  8  0  0  0  0  0  0  0  0999 V2000
    1.6199   -1.8004    1.7192 C   0  0  0  0  0  0  0  0  0  0  0  0
    0.8501   -0.8076    0.8868 C   0  0  0  0  0  0  0  0  0  0  0  0
   -0.5496   -0.8851    0.8451 C   0  0  0  0  0  0  0  0  0  0  0  0
   -1.2910    0.0102    0.0666 C   0  0  0  0  0  0  0  0  0  0  0  0
   -0.6324    0.9911   -0.6825 C   0  0  0  0  0  0  0  0  0  0  0  0
    0.7659    1.0940   -0.6546 C   0  0  0  0  0  0  0  0  0  0  0  0
    1.4457    2.1364   -1.5050 C   0  0  0  0  0  0  0  0  0  0  0  0
    1.5161    0.1901    0.1357 C   0  0  0  0  0  0  0  0  0  0  0  0
  1  2  1  0
  2  3  4  0
  3  4  4  0
  4  5  4  0
  5  6  4  0
  6  7  1  0
  6  8  4  0
  8  2  4  0
M  END
$$$$

     RDKit          3D

  8  8  0  0  0  0  0  0  0  0999 V2000
   -1.7035    2.0487    1.3726 C   0  0  0  0  0  0  0  0  0  0  0  0
   -0.8963    0.9389    0.7491 C   0  0  0  0  0  0  0  0  0  0  0  0
    0.5040    1.0021    0.7912 C   0  0  0  0  0  0  0  0  0  0  0  0
    1.2817    0.0090    0.1862 C   0  0  0  0  0  0  0  0  0  0  0  0
    0.6596   -1.0559   -0.4741 C   0  0  0  0  0  0  0  0  0  0  0  0
   -0.7390   -1.1431   -0.5312 C   0  0  0  0  0  0  0  0  0  0  0  0
   -1.3774   -2.2937   -1.2660 C   0  0  0  0  0  0  0  0  0  0  0  0
   -1.5261   -0.1417    0.0859 C   0  0  0  0  0  0  0  0  0  0  0  0
  1  2  1  0
  2  3  4  0
  3  4  4  0
  4  5  4  0
  5  6  4  0
  6  7  1  0
  6  8  4  0
  8  2  4  0
M  END
$$$$

     RDKit          3D

  8  8  0  0  0  0  0  0  0  0999 V2000
    1.6362   -1.2207    2.1949 C   0  0  0  0  0  0  0  0  0  0  0  0
    0.8561   -0.6514    1.0379 C   0  0  0  0  0  0  0  0  0  0  0  0
   -0.5416   -0.5750    1.1226 C   0  0  0  0  0  0  0  0  0  0  0  0
   -1.2923   -0.0458    0.0675 C   0  0  0  0  0  0  0  0  0  0  0  0
   -0.6455    0.4166   -1.0836 C   0  0  0  0  0  0  0  0  0  0  0  0
    0.7511    0.3505   -1.1945 C   0  0  0  0  0  0  0  0  0  0  0  0
    1.4195    0.8870   -2.4341 C   0  0  0  0  0  0  0  0  0  0  0  0
    1.5105   -0.1910   -0.1294 C   0  0  0  0  0  0  0  0  0  0  0  0
  1  2  1  0
  2  3  4  0
  3  4  4  0
  4  5  4  0
  5  6  4  0
  6  7  1  0
  6  8  4  0
  8  2  4  0
M  END
$$$$

     RDKit          3D

  8  8  0  0  0  0  0  0  0  0999 V2000
    1.5313   -1.5956   -2.1108 C   0  0  0  0  0  0  0  0  0  0  0  0
    0.8098   -0.8359   -1.0273 C   0  0  0  0  0  0  0  0  0  0  0  0
   -0.5922   -0.7984   -1.0315 C   0  0  0  0  0  0  0  0  0  0  0  0
   -1.2896   -0.0760   -0.0574 C   0  0  0  0  0  0  0  0  0  0  0  0
   -0.5844    0.6234    0.9280 C   0  0  0  0  0  0  0  0  0  0  0  0
    0.8175    0.6019    0.9557 C   0  0  0  0  0  0  0  0  0  0  0  0
    1.5468    1.3731    2.0256 C   0  0  0  0  0  0  0  0  0  0  0  0
    1.5231   -0.1383   -0.0228 C   0  0  0  0  0  0  0  0  0  0  0  0
  1  2  1  0
  2  3  4  0
  3  4  4  0
  4  5  4  0
  5  6  4  0
  6  7  1  0
  6  8  4  0
  8  2  4  0
M  END
$$$$

     RDKit          3D

  8  8  0  0  0  0  0  0  0  0999 V2000
    1.6927   -2.4672    0.0135 C   0  0  0  0  0  0  0  0  0  0  0  0
    0.8914   -1.1943   -0.0816 C   0  0  0  0  0  0  0  0  0  0  0  0
   -0.5092   -1.2645   -0.0982 C   0  0  0  0  0  0  0  0  0  0  0  0
   -1.2809   -0.0983   -0.1401 C   0  0  0  0  0  0  0  0  0  0  0  0
   -0.6536    1.1523   -0.1622 C   0  0  0  0  0  0  0  0  0  0  0  0
    0.7452    1.2503   -0.1548 C   0  0  0  0  0  0  0  0  0  0  0  0
    1.3886    2.6131   -0.1694 C   0  0  0  0  0  0  0  0  0  0  0  0
    1.5270    0.0709   -0.1133 C   0  0  0  0  0  0  0  0  0  0  0  0
  1  2  1  0
  2  3  4  0
  3  4  4  0
  4  5  4  0
  5  6  4  0
  6  7  1  0
  6  8  4  0
  8  2  4  0
M  END
$$$$

     RDKit          3D

  8  8  0  0  0  0  0  0  0  0999 V2000
   -1.3535   -1.2022    2.2790 C   0  0  0  0  0  0  0  0  0  0  0  0
   -0.7257   -0.6469    1.0262 C   0  0  0  0  0  0  0  0  0  0  0  0
    0.6717   -0.5702    0.9410 C   0  0  0  0  0  0  0  0  0  0  0  0
    1.2877   -0.0357   -0.1943 C   0  0  0  0  0  0  0  0  0  0  0  0
    0.5076    0.4590   -1.2437 C   0  0  0  0  0  0  0  0  0  0  0  0
   -0.8921    0.4295   -1.1684 C   0  0  0  0  0  0  0  0  0  0  0  0
   -1.7036    0.9927   -2.3071 C   0  0  0  0  0  0  0  0  0  0  0  0
   -1.5175   -0.1431   -0.0347 C   0  0  0  0  0  0  0  0  0  0  0  0
  1  2  1  0
  2  3  4  0
  3  4  4  0
  4  5  4  0
  5  6  4  0
  6  7  1  0
  6  8  4  0
  8  2  4  0
M  END
$$$$
