
     RDKit          3D

  4  3  0  0  0  0  0  0  0  0999 V2000
    0.3299    0.0999   -1.7355 F   0  0  0  0  0  0  0  0  0  0  0  0
    0.5204    0.0459   -0.3922 C   0  0  0  0  0  0  0  0  0  0  0  0
   -0.5204   -0.0459    0.4392 C   0  0  0  0  0  0  0  0  0  0  0  0
   -0.3299   -0.0999    1.7825 F   0  0  0  0  0  0  0  0  0  0  0  0
  1  2  1  0
  2  3  2  0
  3  4  1  0
M  END
$$$$

     RDKit          3D

  4  3  0  0  0  0  0  0  0  0999 V2000
    0.3299    0.0999   -1.7355 F   0  0  0  0  0  0  0  0  0  0  0  0
    0.5204    0.0459   -0.3922 C   0  0  0  0  0  0  0  0  0  0  0  0
   -0.5204   -0.0459    0.4392 C   0  0  0  0  0  0  0  0  0  0  0  0
   -0.3299   -0.0999    1.7825 F   0  0  0  0  0  0  0  0  0  0  0  0
  1  2  1  0
  2  3  2  0
  3  4  1  0
M  END
$$$$

     RDKit          3D

  4  3  0  0  0  0  0  0  0  0999 V2000
    0.3299    0.0999   -1.7355 F   0  0  0  0  0  0  0  0  0  0  0  0
    0.5204    0.0459   -0.3922 C   0  0  0  0  0  0  0  0  0  0  0  0
   -0.5204   -0.0459    0.4392 C   0  0  0  0  0  0  0  0  0  0  0  0
   -0.3299   -0.0999    1.7825 F   0  0  0  0  0  0  0  0  0  0  0  0
  1  2  1  0
  2  3  2  0
  3  4  1  0
M  END
$$$$

     RDKit          3D

  4  3  0  0  0  0  0  0  0  0999 V2000
    0.8574   -0.8629   -1.2528 F   0  0  0  0  0  0  0  0  0  0  0  0
    0.6322   -0.0575   -0.1830 C   0  0  0  0  0  0  0  0  0  0  0  0
   -0.6120    0.2817    0.1630 C   0  0  0  0  0  0  0  0  0  0  0  0
   -0.8372    1.0870    1.2328 F   0  0  0  0  0  0  0  0  0  0  0  0
  1  2  1  0
  2  3  2  0
  3  4  1  0
M  END
$$$$

     RDKit          3D

  4  3  0  0  0  0  0  0  0  0999 V2000
    0.8574   -0.8629   -1.2528 F   0  0  0  0  0  0  0  0  0  0  0  0
    0.6322   -0.0575   -0.1830 C   0  0  0  0  0  0  0  0  0  0  0  0
   -0.6120    0.2817    0.1630 C   0  0  0  0  0  0  0  0  0  0  0  0
   -0.8372    1.0870    1.2328 F   0  0  0  0  0  0  0  0  0  0  0  0
  1  2  1  0
  2  3  2  0
  3  4  1  0
M  END
$$$$

     RDKit          3D

  4  3  0  0  0  0  0  0  0  0999 V2000
    0.8574   -0.8629   -1.2528 F   0  0  0  0  0  0  0  0  0  0  0  0
    0.6322   -0.0575   -0.1830 C   0  0  0  0  0  0  0  0  0  0  0  0
   -0.6120    0.2817    0.1630 C   0  0  0  0  0  0  0  0  0  0  0  0
   -0.8372    1.0870    1.2328 F   0  0  0  0  0  0  0  0  0  0  0  0
  1  2  1  0
  2  3  2  0
  3  4  1  0
M  END
$$$$

     RDKit          3D

  4  3  0  0  0  0  0  0  0  0999 V2000
    0.1265   -1.7683   -0.6213 F   0  0  0  0  0  0  0  0  0  0  0  0
    0.4001   -0.4760   -0.3070 C   0  0  0  0  0  0  0  0  0  0  0  0
   -0.4084    0.5076   -0.7091 C   0  0  0  0  0  0  0  0  0  0  0  0
   -0.1349    1.7999   -0.3948 F   0  0  0  0  0  0  0  0  0  0  0  0
  1  2  1  0
  2  3  2  0
  3  4  1  0
M  END
$$$$

     RDKit          3D

  4  3  0  0  0  0  0  0  0  0999 V2000
    0.1265   -1.7683   -0.6213 F   0  0  0  0  0  0  0  0  0  0  0  0
    0.4001   -0.4760   -0.3070 C   0  0  0  0  0  0  0  0  0  0  0  0
   -0.4084    0.5076   -0.7091 C   0  0  0  0  0  0  0  0  0  0  0  0
   -0.1349    1.7999   -0.3948 F   0  0  0  0  0  0  0  0  0  0  0  0
  1  2  1  0
  2  3  2  0
  3  4  1  0
M  END
$$$$

     RDKit          3D

  4  3  0  0  0  0  0  0  0  0999 V2000
    0.1265   -1.7683   -0.6213 F   0  0  0  0  0  0  0  0  0  0  0  0
    0.4001   -0.4760   -0.3070 C   0  0  0  0  0  0  0  0  0  0  0  0
   -0.4084    0.5076   -0.7091 C   0  0  0  0  0  0  0  0  0  0  0  0
   -0.1349    1.7999   -0.3948 F   0  0  0  0  0  0  0  0  0  0  0  0
  1  2  1  0
  2  3  2  0
  3  4  1  0
M  END
$$$$

     RDKit          3D

  4  3  0  0  0  0  0  0  0  0999 V2000
    1.0446   -0.0260   -1.6109 F   0  0  0  0  0  0  0  0  0  0  0  0
    0.6436    0.0700   -0.3172 C   0  0  0  0  0  0  0  0  0  0  0  0
   -0.6443   -0.0668    0.0077 C   0  0  0  0  0  0  0  0  0  0  0  0
   -1.0452    0.0291    1.3014 F   0  0  0  0  0  0  0  0  0  0  0  0
  1  2  1  0
  2  3  2  0
  3  4  1  0
M  END
$$$$

     RDKit          3D

  4  3  0  0  0  0  0  0  0  0999 V2000
    1.0446   -0.0260   -1.6109 F   0  0  0  0  0  0  0  0  0  0  0  0
    0.6436    0.0700   -0.3172 C   0  0  0  0  0  0  0  0  0  0  0  0
   -0.6443   -0.0668    0.0077 C   0  0  0  0  0  0  0  0  0  0  0  0
   -1.0452    0.0291    1.3014 F   0  0  0  0  0  0  0  0  0  0  0  0
  1  2  1  0
  2  3  2  0
  3  4  1  0
M  END
$$$$

     RDKit          3D

  4  3  0  0  0  0  0  0  0  0999 V2000
    1.0446   -0.0260   -1.6109 F   0  0  0  0  0  0  0  0  0  0  0  0
    0.6436    0.0700   -0.3172 C   0  0  0  0  0  0  0  0  0  0  0  0
   -0.6443   -0.0668    0.0077 C   0  0  0  0  0  0  0  0  0  0  0  0
   -1.0452    0.0291    1.3014 F   0  0  0  0  0  0  0  0  0  0  0  0
  1  2  1  0
  2  3  2  0
  3  4  1  0
M  END
$$$$

     RDKit          3D

  4  3  0  0  0  0  0  0  0  0999 V2000
    1.5752   -2.0895    2.3143 F   0  0  0  0  0  0  0  0  0  0  0  0
    0.9467   -1.1643    1.5476 C   0  0  0  0  0  0  0  0  0  0  0  0
    0.6275    0.0213    2.0788 C   0  0  0  0  0  0  0  0  0  0  0  0
    0.9384    0.2758    3.3741 F   0  0  0  0  0  0  0  0  0  0  0  0
  1  2  1  0
  2  3  2  0
  3  4  1  0
M  END
$$$$

     RDKit          3D

  4  3  0  0  0  0  0  0  0  0999 V2000
    1.5752   -2.0895    2.3143 F   0  0  0  0  0  0  0  0  0  0  0  0
    0.9467   -1.1643    1.5476 C   0  0  0  0  0  0  0  0  0  0  0  0
    0.6275    0.0213    2.0788 C   0  0  0  0  0  0  0  0  0  0  0  0
    0.9384    0.2758    3.3741 F   0  0  0  0  0  0  0  0  0  0  0  0
  1  2  1  0
  2  3  2  0
  3  4  1  0
M  END
$$$$

     RDKit          3D

  4  3  0  0  0  0  0  0  0  0999 V2000
    1.5752   -2.0895    2.3143 F   0  0  0  0  0  0  0  0  0  0  0  0
    0.9467   -1.1643    1.5476 C   0  0  0  0  0  0  0  0  0  0  0  0
    0.6275    0.0213    2.0788 C   0  0  0  0  0  0  0  0  0  0  0  0
    0.9384    0.2758    3.3741 F   0  0  0  0  0  0  0  0  0  0  0  0
  1  2  1  0
  2  3  2  0
  3  4  1  0
M  END
$$$$

     RDKit          3D

  4  3  0  0  0  0  0  0  0  0999 V2000
    1.2868   -2.4433   -2.2319 F   0  0  0  0  0  0  0  0  0  0  0  0
    0.6354   -1.5403   -1.4576 C   0  0  0  0  0  0  0  0  0  0  0  0
   -0.6881   -1.6477   -1.2959 C   0  0  0  0  0  0  0  0  0  0  0  0
   -1.3541   -2.6568   -1.9101 F   0  0  0  0  0  0  0  0  0  0  0  0
  1  2  1  0
  2  3  2  0
  3  4  1  0
M  END
$$$$

     RDKit          3D

  4  3  0  0  0  0  0  0  0  0999 V2000
    1.2868   -2.4433   -2.2319 F   0  0  0  0  0  0  0  0  0  0  0  0
    0.6354   -1.5403   -1.4576 C   0  0  0  0  0  0  0  0  0  0  0  0
   -0.6881   -1.6477   -1.2959 C   0  0  0  0  0  0  0  0  0  0  0  0
   -1.3541   -2.6568   -1.9101 F   0  0  0  0  0  0  0  0  0  0  0  0
  1  2  1  0
  2  3  2  0
  3  4  1  0
M  END
$$$$

     RDKit          3D

  4  3  0  0  0  0  0  0  0  0999 V2000
    1.2868   -2.4433   -2.2319 F   0  0  0  0  0  0  0  0  0  0  0  0
    0.6354   -1.5403   -1.4576 C   0  0  0  0  0  0  0  0  0  0  0  0
   -0.6881   -1.6477   -1.2959 C   0  0  0  0  0  0  0  0  0  0  0  0
   -1.3541   -2.6568   -1.9101 F   0  0  0  0  0  0  0  0  0  0  0  0
  1  2  1  0
  2  3  2  0
  3  4  1  0
M  END
$$$$

     RDKit          3D

  4  3  0  0  0  0  0  0  0  0999 V2000
   -1.1090   -3.1483   -0.5259 F   0  0  0  0  0  0  0  0  0  0  0  0
   -0.5512   -1.9279   -0.3309 C   0  0  0  0  0  0  0  0  0  0  0  0
    0.5990   -1.6262   -0.9437 C   0  0  0  0  0  0  0  0  0  0  0  0
    1.1856   -2.5464   -1.7486 F   0  0  0  0  0  0  0  0  0  0  0  0
  1  2  1  0
  2  3  2  0
  3  4  1  0
M  END
$$$$

     RDKit          3D

  4  3  0  0  0  0  0  0  0  0999 V2000
   -1.1090   -3.1483   -0.5259 F   0  0  0  0  0  0  0  0  0  0  0  0
   -0.5512   -1.9279   -0.3309 C   0  0  0  0  0  0  0  0  0  0  0  0
    0.5990   -1.6262   -0.9437 C   0  0  0  0  0  0  0  0  0  0  0  0
    1.1856   -2.5464   -1.7486 F   0  0  0  0  0  0  0  0  0  0  0  0
  1  2  1  0
  2  3  2  0
  3  4  1  0
M  END
$$$$

     RDKit          3D

  4  3  0  0  0  0  0  0  0  0999 V2000
   -1.1090   -3.1483   -0.5259 F   0  0  0  0  0  0  0  0  0  0  0  0
   -0.5512   -1.9279   -0.3309 C   0  0  0  0  0  0  0  0  0  0  0  0
    0.5990   -1.6262   -0.9437 C   0  0  0  0  0  0  0  0  0  0  0  0
    1.1856   -2.5464   -1.7486 F   0  0  0  0  0  0  0  0  0  0  0  0
  1  2  1  0
  2  3  2  0
  3  4  1  0
M  END
$$$$

     RDKit          3D

  5  4  0  0  0  0  0  0  0  0999 V2000
   -3.8398    0.1926   -0.8083 C   0  0  0  0  0  0  0  0  0  0  0  0
   -2.3185    0.2415   -0.9153 C   0  0  0  0  0  0  0  0  0  0  0  0
   -1.6565   -0.4707    0.2709 C   0  0  0  0  0  0  0  0  0  0  0  0
   -0.1542   -0.3950    0.1792 C   0  0  0  0  0  0  0  0  0  0  0  0
    0.5056   -1.1326   -0.7285 C   0  0  0  0  0  0  0  0  0  0  0  0
  1  2  1  0
  2  3  1  0
  3  4  1  0
  4  5  2  0
M  END
$$$$

     RDKit          3D

  5  4  0  0  0  0  0  0  0  0999 V2000
   -3.8507    0.1961   -0.6488 C   0  0  0  0  0  0  0  0  0  0  0  0
   -2.3676   -0.1561   -0.7164 C   0  0  0  0  0  0  0  0  0  0  0  0
   -1.6393    0.2644    0.5663 C   0  0  0  0  0  0  0  0  0  0  0  0
   -0.1691   -0.0564    0.4850 C   0  0  0  0  0  0  0  0  0  0  0  0
    0.2511   -1.3287    0.5744 C   0  0  0  0  0  0  0  0  0  0  0  0
  1  2  1  0
  2  3  1  0
  3  4  1  0
  4  5  2  0
M  END
$$$$

     RDKit          3D

  5  4  0  0  0  0  0  0  0  0999 V2000
   -3.4469   -1.6411   -0.9192 C   0  0  0  0  0  0  0  0  0  0  0  0
   -2.0062   -1.4189   -0.4683 C   0  0  0  0  0  0  0  0  0  0  0  0
   -1.5087   -0.0248   -0.8701 C   0  0  0  0  0  0  0  0  0  0  0  0
   -0.0962    0.2040   -0.3974 C   0  0  0  0  0  0  0  0  0  0  0  0
    0.9284   -0.4183   -1.0027 C   0  0  0  0  0  0  0  0  0  0  0  0
  1  2  1  0
  2  3  1  0
  3  4  1  0
  4  5  2  0
M  END
$$$$

     RDKit          3D

  5  4  0  0  0  0  0  0  0  0999 V2000
   -3.0957   -1.9482   -1.4065 C   0  0  0  0  0  0  0  0  0  0  0  0
   -1.7219   -1.3039   -1.2458 C   0  0  0  0  0  0  0  0  0  0  0  0
   -1.4598   -0.9147    0.2145 C   0  0  0  0  0  0  0  0  0  0  0  0
   -0.1139   -0.2539    0.3659 C   0  0  0  0  0  0  0  0  0  0  0  0
    1.0103   -0.9836    0.2840 C   0  0  0  0  0  0  0  0  0  0  0  0
  1  2  1  0
  2  3  1  0
  3  4  1  0
  4  5  2  0
M  END
$$$$

     RDKit          3D

  5  4  0  0  0  0  0  0  0  0999 V2000
   -3.1290    0.1539    2.3543 C   0  0  0  0  0  0  0  0  0  0  0  0
   -1.7155   -0.0306    1.8102 C   0  0  0  0  0  0  0  0  0  0  0  0
   -1.7119   -0.0594    0.2766 C   0  0  0  0  0  0  0  0  0  0  0  0
   -0.3119   -0.2125   -0.2601 C   0  0  0  0  0  0  0  0  0  0  0  0
    0.3248   -1.3908   -0.1610 C   0  0  0  0  0  0  0  0  0  0  0  0
  1  2  1  0
  2  3  1  0
  3  4  1  0
  4  5  2  0
M  END
$$$$

     RDKit          3D

  5  4  0  0  0  0  0  0  0  0999 V2000
   -1.5936   -1.3135    2.0878 C   0  0  0  0  0  0  0  0  0  0  0  0
   -0.9062   -0.2112    1.2879 C   0  0  0  0  0  0  0  0  0  0  0  0
   -0.6080   -0.6708   -0.1449 C   0  0  0  0  0  0  0  0  0  0  0  0
    0.0718    0.4224   -0.9372 C   0  0  0  0  0  0  0  0  0  0  0  0
    1.3768    0.7108   -0.8089 C   0  0  0  0  0  0  0  0  0  0  0  0
  1  2  1  0
  2  3  1  0
  3  4  1  0
  4  5  2  0
M  END
$$$$

     RDKit          3D

  5  4  0  0  0  0  0  0  0  0999 V2000
   -1.8618   -2.1228    0.7747 C   0  0  0  0  0  0  0  0  0  0  0  0
   -1.1559   -0.7704    0.7526 C   0  0  0  0  0  0  0  0  0  0  0  0
   -0.4420   -0.5405   -0.5855 C   0  0  0  0  0  0  0  0  0  0  0  0
    0.2560    0.8002   -0.6072 C   0  0  0  0  0  0  0  0  0  0  0  0
    1.4313    1.0193    0.0039 C   0  0  0  0  0  0  0  0  0  0  0  0
  1  2  1  0
  2  3  1  0
  3  4  1  0
  4  5  2  0
M  END
$$$$

     RDKit          3D

  5  4  0  0  0  0  0  0  0  0999 V2000
   -2.6138   -1.1515    0.6786 C   0  0  0  0  0  0  0  0  0  0  0  0
   -1.2921   -0.4003    0.8067 C   0  0  0  0  0  0  0  0  0  0  0  0
   -0.7603    0.0227   -0.5685 C   0  0  0  0  0  0  0  0  0  0  0  0
    0.5483    0.7686   -0.4405 C   0  0  0  0  0  0  0  0  0  0  0  0
    1.7213    0.1503   -0.2300 C   0  0  0  0  0  0  0  0  0  0  0  0
  1  2  1  0
  2  3  1  0
  3  4  1  0
  4  5  2  0
M  END
$$$$

     RDKit          3D

  5  4  0  0  0  0  0  0  0  0999 V2000
   -1.7989   -1.4796    1.7893 C   0  0  0  0  0  0  0  0  0  0  0  0
   -0.9961   -1.1122    0.5450 C   0  0  0  0  0  0  0  0  0  0  0  0
   -0.6373    0.3792    0.5383 C   0  0  0  0  0  0  0  0  0  0  0  0
    0.1563    0.7429   -0.6958 C   0  0  0  0  0  0  0  0  0  0  0  0
    1.4659    0.4760   -0.8242 C   0  0  0  0  0  0  0  0  0  0  0  0
  1  2  1  0
  2  3  1  0
  3  4  1  0
  4  5  2  0
M  END
$$$$

     RDKit          3D

  8  8  0  0  0  0  0  0  0  0999 V2000
    1.2616    1.4350   -2.1051 F   0  0  0  0  0  0  0  0  0  0  0  0
    0.6533    0.7131   -1.1296 C   0  0  0  0  0  0  0  0  0  0  0  0
   -0.7380    0.5801   -1.1515 C   0  0  0  0  0  0  0  0  0  0  0  0
   -1.4045   -0.1332   -0.1419 C   0  0  0  0  0  0  0  0  0  0  0  0
   -0.6534   -0.7125    0.8968 C   0  0  0  0  0  0  0  0  0  0  0  0
   -1.2616   -1.4345    1.8723 F   0  0  0  0  0  0  0  0  0  0  0  0
    0.7380   -0.5795    0.9187 C   0  0  0  0  0  0  0  0  0  0  0  0
    1.4045    0.1338   -0.0909 C   0  0  0  0  0  0  0  0  0  0  0  0
  1  2  1  0
  2  3  4  0
  3  4  4  0
  4  5  4  0
  5  6  1  0
  5  7  4  0
  7  8  4  0
  8  2  4  0
M  END
$$$$

     RDKit          3D

  8  8  0  0  0  0  0  0  0  0999 V2000
   -1.4290    1.3736    1.8488 F   0  0  0  0  0  0  0  0  0  0  0  0
   -0.7373    0.7095    0.8879 C   0  0  0  0  0  0  0  0  0  0  0  0
    0.6585    0.7854    0.8818 C   0  0  0  0  0  0  0  0  0  0  0  0
    1.4087    0.0867   -0.0781 C   0  0  0  0  0  0  0  0  0  0  0  0
    0.7371   -0.6950   -1.0355 C   0  0  0  0  0  0  0  0  0  0  0  0
    1.4288   -1.3590   -1.9965 F   0  0  0  0  0  0  0  0  0  0  0  0
   -0.6587   -0.7708   -1.0294 C   0  0  0  0  0  0  0  0  0  0  0  0
   -1.4089   -0.0722   -0.0695 C   0  0  0  0  0  0  0  0  0  0  0  0
  1  2  1  0
  2  3  4  0
  3  4  4  0
  4  5  4  0
  5  6  1  0
  5  7  4  0
  7  8  4  0
  8  2  4  0
M  END
$$$$

     RDKit          3D

  8  8  0  0  0  0  0  0  0  0999 V2000
    1.3888    2.3753   -0.0382 F   0  0  0  0  0  0  0  0  0  0  0  0
    0.7163    1.1983    0.0331 C   0  0  0  0  0  0  0  0  0  0  0  0
   -0.6815    1.2138    0.0213 C   0  0  0  0  0  0  0  0  0  0  0  0
   -1.4106    0.0142    0.0624 C   0  0  0  0  0  0  0  0  0  0  0  0
   -0.7157   -1.2078    0.1134 C   0  0  0  0  0  0  0  0  0  0  0  0
   -1.3883   -2.3848    0.1847 F   0  0  0  0  0  0  0  0  0  0  0  0
    0.6820   -1.2233    0.1251 C   0  0  0  0  0  0  0  0  0  0  0  0
    1.4112   -0.0237    0.0841 C   0  0  0  0  0  0  0  0  0  0  0  0
  1  2  1  0
  2  3  4  0
  3  4  4  0
  4  5  4  0
  5  6  1  0
  5  7  4  0
  7  8  4  0
  8  2  4  0
M  END
$$$$

     RDKit          3D

  8  8  0  0  0  0  0  0  0  0999 V2000
   -1.5146   -2.2269   -0.6884 F   0  0  0  0  0  0  0  0  0  0  0  0
   -0.7797   -1.1184   -0.4168 C   0  0  0  0  0  0  0  0  0  0  0  0
    0.6151   -1.2114   -0.4194 C   0  0  0  0  0  0  0  0  0  0  0  0
    1.4071   -0.0962   -0.1004 C   0  0  0  0  0  0  0  0  0  0  0  0
    0.7782    1.1183    0.2292 C   0  0  0  0  0  0  0  0  0  0  0  0
    1.5125    2.2226    0.5190 F   0  0  0  0  0  0  0  0  0  0  0  0
   -0.6166    1.2112    0.2317 C   0  0  0  0  0  0  0  0  0  0  0  0
   -1.4077    0.0990   -0.0980 C   0  0  0  0  0  0  0  0  0  0  0  0
  1  2  1  0
  2  3  4  0
  3  4  4  0
  4  5  4  0
  5  6  1  0
  5  7  4  0
  7  8  4  0
  8  2  4  0
M  END
$$$$

     RDKit          3D

  8  8  0  0  0  0  0  0  0  0999 V2000
    1.3754   -1.1105   -2.1595 F   0  0  0  0  0  0  0  0  0  0  0  0
    0.7098   -0.5581   -1.1132 C   0  0  0  0  0  0  0  0  0  0  0  0
   -0.6812   -0.4377   -1.1813 C   0  0  0  0  0  0  0  0  0  0  0  0
   -1.4055    0.1071   -0.1085 C   0  0  0  0  0  0  0  0  0  0  0  0
   -0.7126    0.5315    1.0398 C   0  0  0  0  0  0  0  0  0  0  0  0
   -1.3828    1.0412    2.1046 F   0  0  0  0  0  0  0  0  0  0  0  0
    0.6782    0.4094    1.1087 C   0  0  0  0  0  0  0  0  0  0  0  0
    1.4025   -0.1352    0.0358 C   0  0  0  0  0  0  0  0  0  0  0  0
  1  2  1  0
  2  3  4  0
  3  4  4  0
  4  5  4  0
  5  6  1  0
  5  7  4  0
  7  8  4  0
  8  2  4  0
M  END
$$$$

     RDKit          3D

  8  8  0  0  0  0  0  0  0  0999 V2000
   -1.3298   -2.0818    1.1210 F   0  0  0  0  0  0  0  0  0  0  0  0
   -0.6872   -1.0386    0.5366 C   0  0  0  0  0  0  0  0  0  0  0  0
    0.7101   -1.0041    0.5583 C   0  0  0  0  0  0  0  0  0  0  0  0
    1.4100    0.0367   -0.0737 C   0  0  0  0  0  0  0  0  0  0  0  0
    0.6862    1.0445   -0.7368 C   0  0  0  0  0  0  0  0  0  0  0  0
    1.3290    2.0783   -1.3375 F   0  0  0  0  0  0  0  0  0  0  0  0
   -0.7111    1.0099   -0.7584 C   0  0  0  0  0  0  0  0  0  0  0  0
   -1.4105   -0.0248   -0.1170 C   0  0  0  0  0  0  0  0  0  0  0  0
  1  2  1  0
  2  3  4  0
  3  4  4  0
  4  5  4  0
  5  6  1  0
  5  7  4  0
  7  8  4  0
  8  2  4  0
M  END
$$$$

     RDKit          3D

  8  8  0  0  0  0  0  0  0  0999 V2000
    1.4532    2.2872   -0.4029 F   0  0  0  0  0  0  0  0  0  0  0  0
    0.7488    1.1587   -0.1327 C   0  0  0  0  0  0  0  0  0  0  0  0
   -0.6479    1.2152   -0.1294 C   0  0  0  0  0  0  0  0  0  0  0  0
   -1.4095    0.0603    0.1108 C   0  0  0  0  0  0  0  0  0  0  0  0
   -0.7494   -1.1555    0.3647 C   0  0  0  0  0  0  0  0  0  0  0  0
   -1.4539   -2.2794    0.6531 F   0  0  0  0  0  0  0  0  0  0  0  0
    0.6473   -1.2121    0.3614 C   0  0  0  0  0  0  0  0  0  0  0  0
    1.4095   -0.0594    0.1102 C   0  0  0  0  0  0  0  0  0  0  0  0
  1  2  1  0
  2  3  4  0
  3  4  4  0
  4  5  4  0
  5  6  1  0
  5  7  4  0
  7  8  4  0
  8  2  4  0
M  END
$$$$

     RDKit          3D

  8  8  0  0  0  0  0  0  0  0999 V2000
   -1.5371   -1.4692    1.7333 F   0  0  0  0  0  0  0  0  0  0  0  0
   -0.7907   -0.7339    0.8702 C   0  0  0  0  0  0  0  0  0  0  0  0
    0.6020   -0.8475    0.9103 C   0  0  0  0  0  0  0  0  0  0  0  0
    1.4045   -0.1296    0.0085 C   0  0  0  0  0  0  0  0  0  0  0  0
    0.7884    0.7050   -0.9417 C   0  0  0  0  0  0  0  0  0  0  0  0
    1.5318    1.3904   -1.8475 F   0  0  0  0  0  0  0  0  0  0  0  0
   -0.6044    0.8171   -0.9829 C   0  0  0  0  0  0  0  0  0  0  0  0
   -1.4058    0.1078   -0.0740 C   0  0  0  0  0  0  0  0  0  0  0  0
  1  2  1  0
  2  3  4  0
  3  4  4  0
  4  5  4  0
  5  6  1  0
  5  7  4  0
  7  8  4  0
  8  2  4  0
M  END
$$$$

     RDKit          3D

  8  8  0  0  0  0  0  0  0  0999 V2000
   -1.0497   -2.2763    1.2167 F   0  0  0  0  0  0  0  0  0  0  0  0
   -0.5449   -1.1479    0.6558 C   0  0  0  0  0  0  0  0  0  0  0  0
    0.8384   -0.9464    0.6638 C   0  0  0  0  0  0  0  0  0  0  0  0
    1.3972    0.1999    0.0762 C   0  0  0  0  0  0  0  0  0  0  0  0
    0.5485    1.1378   -0.5388 C   0  0  0  0  0  0  0  0  0  0  0  0
    1.0587    2.2337   -1.1564 F   0  0  0  0  0  0  0  0  0  0  0  0
   -0.8346    0.9356   -0.5484 C   0  0  0  0  0  0  0  0  0  0  0  0
   -1.3949   -0.2054    0.0491 C   0  0  0  0  0  0  0  0  0  0  0  0
  1  2  1  0
  2  3  4  0
  3  4  4  0
  4  5  4  0
  5  6  1  0
  5  7  4  0
  7  8  4  0
  8  2  4  0
M  END
$$$$

     RDKit          3D

  8  8  0  0  0  0  0  0  0  0999 V2000
   -1.4787   -2.2631    0.3078 F   0  0  0  0  0  0  0  0  0  0  0  0
   -0.7631   -1.1432    0.0316 C   0  0  0  0  0  0  0  0  0  0  0  0
    0.6298   -1.2301   -0.0474 C   0  0  0  0  0  0  0  0  0  0  0  0
    1.4056   -0.0844   -0.2883 C   0  0  0  0  0  0  0  0  0  0  0  0
    0.7629    1.1574   -0.4434 C   0  0  0  0  0  0  0  0  0  0  0  0
    1.4795    2.2811   -0.7013 F   0  0  0  0  0  0  0  0  0  0  0  0
   -0.6300    1.2442   -0.3644 C   0  0  0  0  0  0  0  0  0  0  0  0
   -1.4059    0.0967   -0.1346 C   0  0  0  0  0  0  0  0  0  0  0  0
  1  2  1  0
  2  3  4  0
  3  4  4  0
  4  5  4  0
  5  6  1  0
  5  7  4  0
  7  8  4  0
  8  2  4  0
M  END
$$$$

     RDKit          3D

  8  8  0  0  0  0  0  0  0  0999 V2000
   -1.2966   -2.1656    1.1213 F   0  0  0  0  0  0  0  0  0  0  0  0
   -0.6690   -1.1043    0.5536 C   0  0  0  0  0  0  0  0  0  0  0  0
    0.7271   -1.0422    0.5901 C   0  0  0  0  0  0  0  0  0  0  0  0
    1.4084    0.0560    0.0409 C   0  0  0  0  0  0  0  0  0  0  0  0
    0.6674    1.1073   -0.5286 C   0  0  0  0  0  0  0  0  0  0  0  0
    1.2915    2.2075   -1.0213 F   0  0  0  0  0  0  0  0  0  0  0  0
   -0.7287    1.0460   -0.5636 C   0  0  0  0  0  0  0  0  0  0  0  0
   -1.4090   -0.0626   -0.0344 C   0  0  0  0  0  0  0  0  0  0  0  0
  1  2  1  0
  2  3  4  0
  3  4  4  0
  4  5  4  0
  5  6  1  0
  5  7  4  0
  7  8  4  0
  8  2  4  0
M  END
$$$$

     RDKit          3D

  8  8  0  0  0  0  0  0  0  0999 V2000
   -1.3313   -1.5388   -1.8557 F   0  0  0  0  0  0  0  0  0  0  0  0
   -0.6886   -0.7652   -0.9440 C   0  0  0  0  0  0  0  0  0  0  0  0
    0.6991   -0.6226   -1.0326 C   0  0  0  0  0  0  0  0  0  0  0  0
    1.4007    0.1442   -0.0883 C   0  0  0  0  0  0  0  0  0  0  0  0
    0.6922    0.7511    0.9644 C   0  0  0  0  0  0  0  0  0  0  0  0
    1.3450    1.4555    1.9237 F   0  0  0  0  0  0  0  0  0  0  0  0
   -0.6954    0.6070    1.0540 C   0  0  0  0  0  0  0  0  0  0  0  0
   -1.3996   -0.1413    0.0970 C   0  0  0  0  0  0  0  0  0  0  0  0
  1  2  1  0
  2  3  4  0
  3  4  4  0
  4  5  4  0
  5  6  1  0
  5  7  4  0
  7  8  4  0
  8  2  4  0
M  END
$$$$
