
     RDKit          3D

  4  3  0  0  0  0  0  0  0  0999 V2000
    0.3299    0.0999   -1.7355 F   0  0  0  0  0  0  0  0  0  0  0  0
    0.5204    0.0459   -0.3922 C   0  0  0  0  0  0  0  0  0  0  0  0
   -0.5204   -0.0459    0.4392 C   0  0  0  0  0  0  0  0  0  0  0  0
   -0.3299   -0.0999    1.7825 F   0  0  0  0  0  0  0  0  0  0  0  0
  1  2  1  0
  2  3  2  0
  3  4  1  0
M  END
$$$$

     RDKit          3D

  4  3  0  0  0  0  0  0  0  0999 V2000
    0.3299    0.0999   -1.7355 F   0  0  0  0  0  0  0  0  0  0  0  0
    0.5204    0.0459   -0.3922 C   0  0  0  0  0  0  0  0  0  0  0  0
   -0.5204   -0.0459    0.4392 C   0  0  0  0  0  0  0  0  0  0  0  0
   -0.3299   -0.0999    1.7825 F   0  0  0  0  0  0  0  0  0  0  0  0
  1  2  1  0
  2  3  2  0
  3  4  1  0
M  END
$$$$

     RDKit          3D

  4  3  0  0  0  0  0  0  0  0999 V2000
    0.3299    0.0999   -1.7355 F   0  0  0  0  0  0  0  0  0  0  0  0
    0.5204    0.0459   -0.3922 C   0  0  0  0  0  0  0  0  0  0  0  0
   -0.5204   -0.0459    0.4392 C   0  0  0  0  0  0  0  0  0  0  0  0
   -0.3299   -0.0999    1.7825 F   0  0  0  0  0  0  0  0  0  0  0  0
  1  2  1  0
  2  3  2  0
  3  4  1  0
M  END
$$$$

     RDKit          3D

  4  3  0  0  0  0  0  0  0  0999 V2000
    0.8574   -0.8629   -1.2528 F   0  0  0  0  0  0  0  0  0  0  0  0
    0.6322   -0.0575   -0.1830 C   0  0  0  0  0  0  0  0  0  0  0  0
   -0.6120    0.2817    0.1630 C   0  0  0  0  0  0  0  0  0  0  0  0
   -0.8372    1.0870    1.2328 F   0  0  0  0  0  0  0  0  0  0  0  0
  1  2  1  0
  2  3  2  0
  3  4  1  0
M  END
$$$$

     RDKit          3D

  4  3  0  0  0  0  0  0  0  0999 V2000
    0.8574   -0.8629   -1.2528 F   0  0  0  0  0  0  0  0  0  0  0  0
    0.6322   -0.0575   -0.1830 C   0  0  0  0  0  0  0  0  0  0  0  0
   -0.6120    0.2817    0.1630 C   0  0  0  0  0  0  0  0  0  0  0  0
   -0.8372    1.0870    1.2328 F   0  0  0  0  0  0  0  0  0  0  0  0
  1  2  1  0
  2  3  2  0
  3  4  1  0
M  END
$$$$

     RDKit          3D

  4  3  0  0  0  0  0  0  0  0999 V2000
    0.8574   -0.8629   -1.2528 F   0  0  0  0  0  0  0  0  0  0  0  0
    0.6322   -0.0575   -0.1830 C   0  0  0  0  0  0  0  0  0  0  0  0
   -0.6120    0.2817    0.1630 C   0  0  0  0  0  0  0  0  0  0  0  0
   -0.8372    1.0870    1.2328 F   0  0  0  0  0  0  0  0  0  0  0  0
  1  2  1  0
  2  3  2  0
  3  4  1  0
M  END
$$$$

     RDKit          3D

  4  3  0  0  0  0  0  0  0  0999 V2000
    0.1265   -1.7683   -0.6213 F   0  0  0  0  0  0  0  0  0  0  0  0
    0.4001   -0.4760   -0.3070 C   0  0  0  0  0  0  0  0  0  0  0  0
   -0.4084    0.5076   -0.7091 C   0  0  0  0  0  0  0  0  0  0  0  0
   -0.1349    1.7999   -0.3948 F   0  0  0  0  0  0  0  0  0  0  0  0
  1  2  1  0
  2  3  2  0
  3  4  1  0
M  END
$$$$

     RDKit          3D

  4  3  0  0  0  0  0  0  0  0999 V2000
    0.1265   -1.7683   -0.6213 F   0  0  0  0  0  0  0  0  0  0  0  0
    0.4001   -0.4760   -0.3070 C   0  0  0  0  0  0  0  0  0  0  0  0
   -0.4084    0.5076   -0.7091 C   0  0  0  0  0  0  0  0  0  0  0  0
   -0.1349    1.7999   -0.3948 F   0  0  0  0  0  0  0  0  0  0  0  0
  1  2  1  0
  2  3  2  0
  3  4  1  0
M  END
$$$$

     RDKit          3D

  4  3  0  0  0  0  0  0  0  0999 V2000
    0.1265   -1.7683   -0.6213 F   0  0  0  0  0  0  0  0  0  0  0  0
    0.4001   -0.4760   -0.3070 C   0  0  0  0  0  0  0  0  0  0  0  0
   -0.4084    0.5076   -0.7091 C   0  0  0  0  0  0  0  0  0  0  0  0
   -0.1349    1.7999   -0.3948 F   0  0  0  0  0  0  0  0  0  0  0  0
  1  2  1  0
  2  3  2  0
  3  4  1  0
M  END
$$$$

     RDKit          3D

  4  3  0  0  0  0  0  0  0  0999 V2000
    1.0446   -0.0260   -1.6109 F   0  0  0  0  0  0  0  0  0  0  0  0
    0.6436    0.0700   -0.3172 C   0  0  0  0  0  0  0  0  0  0  0  0
   -0.6443   -0.0668    0.0077 C   0  0  0  0  0  0  0  0  0  0  0  0
   -1.0452    0.0291    1.3014 F   0  0  0  0  0  0  0  0  0  0  0  0
  1  2  1  0
  2  3  2  0
  3  4  1  0
M  END
$$$$

     RDKit          3D

  4  3  0  0  0  0  0  0  0  0999 V2000
    1.0446   -0.0260   -1.6109 F   0  0  0  0  0  0  0  0  0  0  0  0
    0.6436    0.0700   -0.3172 C   0  0  0  0  0  0  0  0  0  0  0  0
   -0.6443   -0.0668    0.0077 C   0  0  0  0  0  0  0  0  0  0  0  0
   -1.0452    0.0291    1.3014 F   0  0  0  0  0  0  0  0  0  0  0  0
  1  2  1  0
  2  3  2  0
  3  4  1  0
M  END
$$$$

     RDKit          3D

  4  3  0  0  0  0  0  0  0  0999 V2000
    1.0446   -0.0260   -1.6109 F   0  0  0  0  0  0  0  0  0  0  0  0
    0.6436    0.0700   -0.3172 C   0  0  0  0  0  0  0  0  0  0  0  0
   -0.6443   -0.0668    0.0077 C   0  0  0  0  0  0  0  0  0  0  0  0
   -1.0452    0.0291    1.3014 F   0  0  0  0  0  0  0  0  0  0  0  0
  1  2  1  0
  2  3  2  0
  3  4  1  0
M  END
$$$$

     RDKit          3D

  4  3  0  0  0  0  0  0  0  0999 V2000
    1.5752   -2.0895    2.3143 F   0  0  0  0  0  0  0  0  0  0  0  0
    0.9467   -1.1643    1.5476 C   0  0  0  0  0  0  0  0  0  0  0  0
    0.6275    0.0213    2.0788 C   0  0  0  0  0  0  0  0  0  0  0  0
    0.9384    0.2758    3.3741 F   0  0  0  0  0  0  0  0  0  0  0  0
  1  2  1  0
  2  3  2  0
  3  4  1  0
M  END
$$$$

     RDKit          3D

  4  3  0  0  0  0  0  0  0  0999 V2000
    1.5752   -2.0895    2.3143 F   0  0  0  0  0  0  0  0  0  0  0  0
    0.9467   -1.1643    1.5476 C   0  0  0  0  0  0  0  0  0  0  0  0
    0.6275    0.0213    2.0788 C   0  0  0  0  0  0  0  0  0  0  0  0
    0.9384    0.2758    3.3741 F   0  0  0  0  0  0  0  0  0  0  0  0
  1  2  1  0
  2  3  2  0
  3  4  1  0
M  END
$$$$

     RDKit          3D

  4  3  0  0  0  0  0  0  0  0999 V2000
    1.5752   -2.0895    2.3143 F   0  0  0  0  0  0  0  0  0  0  0  0
    0.9467   -1.1643    1.5476 C   0  0  0  0  0  0  0  0  0  0  0  0
    0.6275    0.0213    2.0788 C   0  0  0  0  0  0  0  0  0  0  0  0
    0.9384    0.2758    3.3741 F   0  0  0  0  0  0  0  0  0  0  0  0
  1  2  1  0
  2  3  2  0
  3  4  1  0
M  END
$$$$

     RDKit          3D

  4  3  0  0  0  0  0  0  0  0999 V2000
    1.2868   -2.4433   -2.2319 F   0  0  0  0  0  0  0  0  0  0  0  0
    0.6354   -1.5403   -1.4576 C   0  0  0  0  0  0  0  0  0  0  0  0
   -0.6881   -1.6477   -1.2959 C   0  0  0  0  0  0  0  0  0  0  0  0
   -1.3541   -2.6568   -1.9101 F   0  0  0  0  0  0  0  0  0  0  0  0
  1  2  1  0
  2  3  2  0
  3  4  1  0
M  END
$$$$

     RDKit          3D

  4  3  0  0  0  0  0  0  0  0999 V2000
    1.2868   -2.4433   -2.2319 F   0  0  0  0  0  0  0  0  0  0  0  0
    0.6354   -1.5403   -1.4576 C   0  0  0  0  0  0  0  0  0  0  0  0
   -0.6881   -1.6477   -1.2959 C   0  0  0  0  0  0  0  0  0  0  0  0
   -1.3541   -2.6568   -1.9101 F   0  0  0  0  0  0  0  0  0  0  0  0
  1  2  1  0
  2  3  2  0
  3  4  1  0
M  END
$$$$

     RDKit          3D

  4  3  0  0  0  0  0  0  0  0999 V2000
    1.2868   -2.4433   -2.2319 F   0  0  0  0  0  0  0  0  0  0  0  0
    0.6354   -1.5403   -1.4576 C   0  0  0  0  0  0  0  0  0  0  0  0
   -0.6881   -1.6477   -1.2959 C   0  0  0  0  0  0  0  0  0  0  0  0
   -1.3541   -2.6568   -1.9101 F   0  0  0  0  0  0  0  0  0  0  0  0
  1  2  1  0
  2  3  2  0
  3  4  1  0
M  END
$$$$

     RDKit          3D

  4  3  0  0  0  0  0  0  0  0999 V2000
   -1.1090   -3.1483   -0.5259 F   0  0  0  0  0  0  0  0  0  0  0  0
   -0.5512   -1.9279   -0.3309 C   0  0  0  0  0  0  0  0  0  0  0  0
    0.5990   -1.6262   -0.9437 C   0  0  0  0  0  0  0  0  0  0  0  0
    1.1856   -2.5464   -1.7486 F   0  0  0  0  0  0  0  0  0  0  0  0
  1  2  1  0
  2  3  2  0
  3  4  1  0
M  END
$$$$

     RDKit          3D

  4  3  0  0  0  0  0  0  0  0999 V2000
   -1.1090   -3.1483   -0.5259 F   0  0  0  0  0  0  0  0  0  0  0  0
   -0.5512   -1.9279   -0.3309 C   0  0  0  0  0  0  0  0  0  0  0  0
    0.5990   -1.6262   -0.9437 C   0  0  0  0  0  0  0  0  0  0  0  0
    1.1856   -2.5464   -1.7486 F   0  0  0  0  0  0  0  0  0  0  0  0
  1  2  1  0
  2  3  2  0
  3  4  1  0
M  END
$$$$

     RDKit          3D

  4  3  0  0  0  0  0  0  0  0999 V2000
   -1.1090   -3.1483   -0.5259 F   0  0  0  0  0  0  0  0  0  0  0  0
   -0.5512   -1.9279   -0.3309 C   0  0  0  0  0  0  0  0  0  0  0  0
    0.5990   -1.6262   -0.9437 C   0  0  0  0  0  0  0  0  0  0  0  0
    1.1856   -2.5464   -1.7486 F   0  0  0  0  0  0  0  0  0  0  0  0
  1  2  1  0
  2  3  2  0
  3  4  1  0
M  END
$$$$

     RDKit          3D

  7  7  0  0  0  0  0  0  0  0999 V2000
    1.2105   -2.0850   -1.2368 F   0  0  0  0  0  0  0  0  0  0  0  0
    0.6279   -1.0520   -0.5763 C   0  0  0  0  0  0  0  0  0  0  0  0
    1.4074   -0.1360    0.1534 C   0  0  0  0  0  0  0  0  0  0  0  0
    0.7675    0.9006    0.8516 C   0  0  0  0  0  0  0  0  0  0  0  0
   -0.6240    1.0217    0.8242 C   0  0  0  0  0  0  0  0  0  0  0  0
   -1.4062    0.1085    0.0963 C   0  0  0  0  0  0  0  0  0  0  0  0
   -0.7647   -0.9291   -0.6026 C   0  0  0  0  0  0  0  0  0  0  0  0
  1  2  1  0
  2  3  4  0
  3  4  4  0
  4  5  4  0
  5  6  4  0
  6  7  4  0
  7  2  4  0
M  END
$$$$

     RDKit          3D

  7  7  0  0  0  0  0  0  0  0999 V2000
   -1.2481   -1.4695   -1.9561 F   0  0  0  0  0  0  0  0  0  0  0  0
   -0.6457   -0.7365   -0.9853 C   0  0  0  0  0  0  0  0  0  0  0  0
   -1.4108    0.0118   -0.0722 C   0  0  0  0  0  0  0  0  0  0  0  0
   -0.7549    0.7315    0.9394 C   0  0  0  0  0  0  0  0  0  0  0  0
    0.6383    0.7050    1.0402 C   0  0  0  0  0  0  0  0  0  0  0  0
    1.4062   -0.0414    0.1298 C   0  0  0  0  0  0  0  0  0  0  0  0
    0.7486   -0.7616   -0.8829 C   0  0  0  0  0  0  0  0  0  0  0  0
  1  2  1  0
  2  3  4  0
  3  4  4  0
  4  5  4  0
  5  6  4  0
  6  7  4  0
  7  2  4  0
M  END
$$$$

     RDKit          3D

  7  7  0  0  0  0  0  0  0  0999 V2000
    1.2503   -0.1182   -2.4654 F   0  0  0  0  0  0  0  0  0  0  0  0
    0.6464   -0.0749   -1.2505 C   0  0  0  0  0  0  0  0  0  0  0  0
    1.4070   -0.1329   -0.0685 C   0  0  0  0  0  0  0  0  0  0  0  0
    0.7509   -0.0520    1.1702 C   0  0  0  0  0  0  0  0  0  0  0  0
   -0.6382    0.0856    1.2301 C   0  0  0  0  0  0  0  0  0  0  0  0
   -1.4016    0.1441    0.0514 C   0  0  0  0  0  0  0  0  0  0  0  0
   -0.7438    0.0627   -1.1885 C   0  0  0  0  0  0  0  0  0  0  0  0
  1  2  1  0
  2  3  4  0
  3  4  4  0
  4  5  4  0
  5  6  4  0
  6  7  4  0
  7  2  4  0
M  END
$$$$

     RDKit          3D

  7  7  0  0  0  0  0  0  0  0999 V2000
    1.2393    2.4622    0.1624 F   0  0  0  0  0  0  0  0  0  0  0  0
    0.6412    1.2464    0.0801 C   0  0  0  0  0  0  0  0  0  0  0  0
    1.4092    0.0677    0.0759 C   0  0  0  0  0  0  0  0  0  0  0  0
    0.7584   -1.1707   -0.0441 C   0  0  0  0  0  0  0  0  0  0  0  0
   -0.6325   -1.2334   -0.1592 C   0  0  0  0  0  0  0  0  0  0  0  0
   -1.4033   -0.0580   -0.1556 C   0  0  0  0  0  0  0  0  0  0  0  0
   -0.7508    1.1815   -0.0351 C   0  0  0  0  0  0  0  0  0  0  0  0
  1  2  1  0
  2  3  4  0
  3  4  4  0
  4  5  4  0
  5  6  4  0
  6  7  4  0
  7  2  4  0
M  END
$$$$

     RDKit          3D

  7  7  0  0  0  0  0  0  0  0999 V2000
   -1.3084    0.1868    2.3621 F   0  0  0  0  0  0  0  0  0  0  0  0
   -0.6778    0.1069    1.1627 C   0  0  0  0  0  0  0  0  0  0  0  0
   -1.4104   -0.0952   -0.0212 C   0  0  0  0  0  0  0  0  0  0  0  0
   -0.7216   -0.2061   -1.2397 C   0  0  0  0  0  0  0  0  0  0  0  0
    0.6722   -0.1185   -1.2778 C   0  0  0  0  0  0  0  0  0  0  0  0
    1.4077    0.0833   -0.0972 C   0  0  0  0  0  0  0  0  0  0  0  0
    0.7172    0.1945    1.1225 C   0  0  0  0  0  0  0  0  0  0  0  0
  1  2  1  0
  2  3  4  0
  3  4  4  0
  4  5  4  0
  5  6  4  0
  6  7  4  0
  7  2  4  0
M  END
$$$$

     RDKit          3D

  7  7  0  0  0  0  0  0  0  0999 V2000
    1.5499    2.1401   -0.7454 F   0  0  0  0  0  0  0  0  0  0  0  0
    0.7991    1.0825   -0.3447 C   0  0  0  0  0  0  0  0  0  0  0  0
    1.4085   -0.1252    0.0414 C   0  0  0  0  0  0  0  0  0  0  0  0
    0.5990   -1.2055    0.4274 C   0  0  0  0  0  0  0  0  0  0  0  0
   -0.7929   -1.0848    0.4284 C   0  0  0  0  0  0  0  0  0  0  0  0
   -1.4055    0.1197    0.0420 C   0  0  0  0  0  0  0  0  0  0  0  0
   -0.5942    1.2008   -0.3450 C   0  0  0  0  0  0  0  0  0  0  0  0
  1  2  1  0
  2  3  4  0
  3  4  4  0
  4  5  4  0
  5  6  4  0
  6  7  4  0
  7  2  4  0
M  END
$$$$

     RDKit          3D

  7  7  0  0  0  0  0  0  0  0999 V2000
    1.1160   -2.1427    1.4398 F   0  0  0  0  0  0  0  0  0  0  0  0
    0.5793   -1.0833    0.7823 C   0  0  0  0  0  0  0  0  0  0  0  0
    1.4064   -0.0996    0.2103 C   0  0  0  0  0  0  0  0  0  0  0  0
    0.8166    0.9697   -0.4828 C   0  0  0  0  0  0  0  0  0  0  0  0
   -0.5725    1.0571   -0.6038 C   0  0  0  0  0  0  0  0  0  0  0  0
   -1.4022    0.0755   -0.0348 C   0  0  0  0  0  0  0  0  0  0  0  0
   -0.8107   -0.9951    0.6583 C   0  0  0  0  0  0  0  0  0  0  0  0
  1  2  1  0
  2  3  4  0
  3  4  4  0
  4  5  4  0
  5  6  4  0
  6  7  4  0
  7  2  4  0
M  END
$$$$

     RDKit          3D

  7  7  0  0  0  0  0  0  0  0999 V2000
    1.4632   -0.7209   -2.2302 F   0  0  0  0  0  0  0  0  0  0  0  0
    0.7553   -0.3623   -1.1288 C   0  0  0  0  0  0  0  0  0  0  0  0
    1.4111   -0.0530    0.0767 C   0  0  0  0  0  0  0  0  0  0  0  0
    0.6450    0.2908    1.2020 C   0  0  0  0  0  0  0  0  0  0  0  0
   -0.7497    0.3255    1.1276 C   0  0  0  0  0  0  0  0  0  0  0  0
   -1.4087    0.0158   -0.0747 C   0  0  0  0  0  0  0  0  0  0  0  0
   -0.6408   -0.3290   -1.2007 C   0  0  0  0  0  0  0  0  0  0  0  0
  1  2  1  0
  2  3  4  0
  3  4  4  0
  4  5  4  0
  5  6  4  0
  6  7  4  0
  7  2  4  0
M  END
$$$$

     RDKit          3D

  7  7  0  0  0  0  0  0  0  0999 V2000
   -0.9834    2.4119    1.0163 F   0  0  0  0  0  0  0  0  0  0  0  0
   -0.5124    1.2249    0.5558 C   0  0  0  0  0  0  0  0  0  0  0  0
   -1.3981    0.2034    0.1673 C   0  0  0  0  0  0  0  0  0  0  0  0
   -0.8748   -1.0197   -0.2818 C   0  0  0  0  0  0  0  0  0  0  0  0
    0.5063   -1.2214   -0.3425 C   0  0  0  0  0  0  0  0  0  0  0  0
    1.3945   -0.2036    0.0461 C   0  0  0  0  0  0  0  0  0  0  0  0
    0.8696    1.0205    0.4962 C   0  0  0  0  0  0  0  0  0  0  0  0
  1  2  1  0
  2  3  4  0
  3  4  4  0
  4  5  4  0
  5  6  4  0
  6  7  4  0
  7  2  4  0
M  END
$$$$

     RDKit          3D

  7  7  0  0  0  0  0  0  0  0999 V2000
    1.3650    0.4286   -2.4000 F   0  0  0  0  0  0  0  0  0  0  0  0
    0.7061    0.2092   -1.2336 C   0  0  0  0  0  0  0  0  0  0  0  0
    1.4120    0.0826   -0.0233 C   0  0  0  0  0  0  0  0  0  0  0  0
    0.6954   -0.1202    1.1670 C   0  0  0  0  0  0  0  0  0  0  0  0
   -0.6996   -0.1952    1.1517 C   0  0  0  0  0  0  0  0  0  0  0  0
   -1.4085   -0.0678   -0.0553 C   0  0  0  0  0  0  0  0  0  0  0  0
   -0.6902    0.1359   -1.2466 C   0  0  0  0  0  0  0  0  0  0  0  0
  1  2  1  0
  2  3  4  0
  3  4  4  0
  4  5  4  0
  5  6  4  0
  6  7  4  0
  7  2  4  0
M  END
$$$$

     RDKit          3D

  7  7  0  0  0  0  0  0  0  0999 V2000
    1.2615    1.5849    1.8549 F   0  0  0  0  0  0  0  0  0  0  0  0
    0.6531    0.7915    0.9368 C   0  0  0  0  0  0  0  0  0  0  0  0
    1.4126    0.0324    0.0283 C   0  0  0  0  0  0  0  0  0  0  0  0
    0.7499   -0.7406   -0.9381 C   0  0  0  0  0  0  0  0  0  0  0  0
   -0.6460   -0.7706   -0.9874 C   0  0  0  0  0  0  0  0  0  0  0  0
   -1.4090   -0.0210   -0.0754 C   0  0  0  0  0  0  0  0  0  0  0  0
   -0.7439    0.7618    0.8847 C   0  0  0  0  0  0  0  0  0  0  0  0
  1  2  1  0
  2  3  4  0
  3  4  4  0
  4  5  4  0
  5  6  4  0
  6  7  4  0
  7  2  4  0
M  END
$$$$

     RDKit          3D

  7  7  0  0  0  0  0  0  0  0999 V2000
   -1.3627    2.1022    1.0308 F   0  0  0  0  0  0  0  0  0  0  0  0
   -0.7057    1.0251    0.5297 C   0  0  0  0  0  0  0  0  0  0  0  0
   -1.3994    0.0270   -0.1785 C   0  0  0  0  0  0  0  0  0  0  0  0
   -0.6818   -1.0560   -0.7111 C   0  0  0  0  0  0  0  0  0  0  0  0
    0.7024   -1.1423   -0.5421 C   0  0  0  0  0  0  0  0  0  0  0  0
    1.3990   -0.1471    0.1648 C   0  0  0  0  0  0  0  0  0  0  0  0
    0.6797    0.9368    0.6980 C   0  0  0  0  0  0  0  0  0  0  0  0
  1  2  1  0
  2  3  4  0
  3  4  4  0
  4  5  4  0
  5  6  4  0
  6  7  4  0
  7  2  4  0
M  END
$$$$

     RDKit          3D

  7  7  0  0  0  0  0  0  0  0999 V2000
   -1.3515   -1.3142   -2.1277 F   0  0  0  0  0  0  0  0  0  0  0  0
   -0.6988   -0.6666   -1.1291 C   0  0  0  0  0  0  0  0  0  0  0  0
   -1.4114   -0.0861   -0.0641 C   0  0  0  0  0  0  0  0  0  0  0  0
   -0.7012    0.5552    0.9634 C   0  0  0  0  0  0  0  0  0  0  0  0
    0.6942    0.6167    0.9306 C   0  0  0  0  0  0  0  0  0  0  0  0
    1.4098    0.0368   -0.1311 C   0  0  0  0  0  0  0  0  0  0  0  0
    0.6979   -0.6058   -1.1592 C   0  0  0  0  0  0  0  0  0  0  0  0
  1  2  1  0
  2  3  4  0
  3  4  4  0
  4  5  4  0
  5  6  4  0
  6  7  4  0
  7  2  4  0
M  END
$$$$

     RDKit          3D

  7  7  0  0  0  0  0  0  0  0999 V2000
    1.5010    0.9755    2.1499 F   0  0  0  0  0  0  0  0  0  0  0  0
    0.7747    0.4737    1.1187 C   0  0  0  0  0  0  0  0  0  0  0  0
    1.4126   -0.0640   -0.0137 C   0  0  0  0  0  0  0  0  0  0  0  0
    0.6306   -0.5222   -1.0856 C   0  0  0  0  0  0  0  0  0  0  0  0
   -0.7638   -0.4610   -1.0235 C   0  0  0  0  0  0  0  0  0  0  0  0
   -1.4058    0.0655    0.1107 C   0  0  0  0  0  0  0  0  0  0  0  0
   -0.6210    0.5340    1.1791 C   0  0  0  0  0  0  0  0  0  0  0  0
  1  2  1  0
  2  3  4  0
  3  4  4  0
  4  5  4  0
  5  6  4  0
  6  7  4  0
  7  2  4  0
M  END
$$$$

     RDKit          3D

  8  8  0  0  0  0  0  0  0  0999 V2000
   -1.4509   -2.0640    1.3755 N   0  0  0  0  0  0  0  0  0  0  0  0
   -0.7229   -1.0077    0.7339 C   0  0  0  0  0  0  0  0  0  0  0  0
    0.6780   -1.0412    0.7531 C   0  0  0  0  0  0  0  0  0  0  0  0
    1.4313   -0.0017    0.1921 C   0  0  0  0  0  0  0  0  0  0  0  0
    0.7755    1.0976   -0.3985 C   0  0  0  0  0  0  0  0  0  0  0  0
    1.5131    2.1842   -0.9748 N   0  0  0  0  0  0  0  0  0  0  0  0
   -0.6247    1.1282   -0.4276 C   0  0  0  0  0  0  0  0  0  0  0  0
   -1.3839    0.0823    0.1216 C   0  0  0  0  0  0  0  0  0  0  0  0
  1  2  1  0
  2  3  4  0
  3  4  4  0
  4  5  4  0
  5  6  1  0
  5  7  4  0
  7  8  4  0
  8  2  4  0
M  END
$$$$

     RDKit          3D

  8  8  0  0  0  0  0  0  0  0999 V2000
    1.1957   -1.7626   -1.9962 N   0  0  0  0  0  0  0  0  0  0  0  0
    0.5941   -0.9248   -0.9993 C   0  0  0  0  0  0  0  0  0  0  0  0
   -0.8036   -0.8434   -0.9360 C   0  0  0  0  0  0  0  0  0  0  0  0
   -1.4350    0.0074   -0.0194 C   0  0  0  0  0  0  0  0  0  0  0  0
   -0.6578    0.7959    0.8533 C   0  0  0  0  0  0  0  0  0  0  0  0
   -1.2687    1.6794    1.8036 N   0  0  0  0  0  0  0  0  0  0  0  0
    0.7393    0.7094    0.7976 C   0  0  0  0  0  0  0  0  0  0  0  0
    1.3764   -0.1509   -0.1111 C   0  0  0  0  0  0  0  0  0  0  0  0
  1  2  1  0
  2  3  4  0
  3  4  4  0
  4  5  4  0
  5  6  1  0
  5  7  4  0
  7  8  4  0
  8  2  4  0
M  END
$$$$

     RDKit          3D

  8  8  0  0  0  0  0  0  0  0999 V2000
    0.4538    1.9258   -2.0294 N   0  0  0  0  0  0  0  0  0  0  0  0
    0.2334    0.9200   -1.0307 C   0  0  0  0  0  0  0  0  0  0  0  0
   -1.0742    0.4742   -0.7949 C   0  0  0  0  0  0  0  0  0  0  0  0
   -1.3313   -0.5484    0.1277 C   0  0  0  0  0  0  0  0  0  0  0  0
   -0.2629   -1.1417    0.8302 C   0  0  0  0  0  0  0  0  0  0  0  0
   -0.4876   -2.1918    1.7807 N   0  0  0  0  0  0  0  0  0  0  0  0
    1.0440   -0.6915    0.6023 C   0  0  0  0  0  0  0  0  0  0  0  0
    1.3053    0.3416   -0.3122 C   0  0  0  0  0  0  0  0  0  0  0  0
  1  2  1  0
  2  3  4  0
  3  4  4  0
  4  5  4  0
  5  6  1  0
  5  7  4  0
  7  8  4  0
  8  2  4  0
M  END
$$$$

     RDKit          3D

  8  8  0  0  0  0  0  0  0  0999 V2000
   -2.0173    1.2019   -1.4556 N   0  0  0  0  0  0  0  0  0  0  0  0
   -1.0172    0.5435   -0.6658 C   0  0  0  0  0  0  0  0  0  0  0  0
    0.2650    0.3690   -1.2039 C   0  0  0  0  0  0  0  0  0  0  0  0
    1.2904   -0.2142   -0.4480 C   0  0  0  0  0  0  0  0  0  0  0  0
    1.0346   -0.6305    0.8742 C   0  0  0  0  0  0  0  0  0  0  0  0
    2.0615   -1.2235    1.6808 N   0  0  0  0  0  0  0  0  0  0  0  0
   -0.2490   -0.4660    1.4106 C   0  0  0  0  0  0  0  0  0  0  0  0
   -1.2833    0.1061    0.6524 C   0  0  0  0  0  0  0  0  0  0  0  0
  1  2  1  0
  2  3  4  0
  3  4  4  0
  4  5  4  0
  5  6  1  0
  5  7  4  0
  7  8  4  0
  8  2  4  0
M  END
$$$$

     RDKit          3D

  8  8  0  0  0  0  0  0  0  0999 V2000
   -1.5406   -0.9375    2.2276 N   0  0  0  0  0  0  0  0  0  0  0  0
   -0.7699   -0.5226    1.0912 C   0  0  0  0  0  0  0  0  0  0  0  0
    0.6273   -0.6146    1.1495 C   0  0  0  0  0  0  0  0  0  0  0  0
    1.4238   -0.1660    0.0879 C   0  0  0  0  0  0  0  0  0  0  0  0
    0.8161    0.3875   -1.0575 C   0  0  0  0  0  0  0  0  0  0  0  0
    1.5988    0.8583   -2.1631 N   0  0  0  0  0  0  0  0  0  0  0  0
   -0.5808    0.4724   -1.1212 C   0  0  0  0  0  0  0  0  0  0  0  0
   -1.3836    0.0133   -0.0646 C   0  0  0  0  0  0  0  0  0  0  0  0
  1  2  1  0
  2  3  4  0
  3  4  4  0
  4  5  4  0
  5  6  1  0
  5  7  4  0
  7  8  4  0
  8  2  4  0
M  END
$$$$

     RDKit          3D

  8  8  0  0  0  0  0  0  0  0999 V2000
    1.1066    2.2200   -1.4084 N   0  0  0  0  0  0  0  0  0  0  0  0
    0.5561    1.0817   -0.7311 C   0  0  0  0  0  0  0  0  0  0  0  0
   -0.8299    0.8773   -0.7658 C   0  0  0  0  0  0  0  0  0  0  0  0
   -1.4068   -0.2518   -0.1700 C   0  0  0  0  0  0  0  0  0  0  0  0
   -0.5854   -1.2007    0.4721 C   0  0  0  0  0  0  0  0  0  0  0  0
   -1.1391   -2.3729    1.0853 N   0  0  0  0  0  0  0  0  0  0  0  0
    0.7994   -0.9931    0.5165 C   0  0  0  0  0  0  0  0  0  0  0  0
    1.3807    0.1438   -0.0677 C   0  0  0  0  0  0  0  0  0  0  0  0
  1  2  1  0
  2  3  4  0
  3  4  4  0
  4  5  4  0
  5  6  1  0
  5  7  4  0
  7  8  4  0
  8  2  4  0
M  END
$$$$

     RDKit          3D

  8  8  0  0  0  0  0  0  0  0999 V2000
   -1.4246   -2.2843   -0.8216 N   0  0  0  0  0  0  0  0  0  0  0  0
   -0.7202   -1.1470   -0.3038 C   0  0  0  0  0  0  0  0  0  0  0  0
    0.6556   -1.2554   -0.0597 C   0  0  0  0  0  0  0  0  0  0  0  0
    1.3967   -0.1543    0.3888 C   0  0  0  0  0  0  0  0  0  0  0  0
    0.7546    1.0834    0.5962 C   0  0  0  0  0  0  0  0  0  0  0  0
    1.4822    2.2344    1.0462 N   0  0  0  0  0  0  0  0  0  0  0  0
   -0.6224    1.1912    0.3623 C   0  0  0  0  0  0  0  0  0  0  0  0
   -1.3717    0.0870   -0.0747 C   0  0  0  0  0  0  0  0  0  0  0  0
  1  2  1  0
  2  3  4  0
  3  4  4  0
  4  5  4  0
  5  6  1  0
  5  7  4  0
  7  8  4  0
  8  2  4  0
M  END
$$$$

     RDKit          3D

  8  8  0  0  0  0  0  0  0  0999 V2000
   -1.3559   -0.6157   -2.3933 N   0  0  0  0  0  0  0  0  0  0  0  0
   -0.6805   -0.2462   -1.1830 C   0  0  0  0  0  0  0  0  0  0  0  0
    0.7155   -0.1231   -1.1963 C   0  0  0  0  0  0  0  0  0  0  0  0
    1.4235    0.1769   -0.0252 C   0  0  0  0  0  0  0  0  0  0  0  0
    0.7265    0.3575    1.1869 C   0  0  0  0  0  0  0  0  0  0  0  0
    1.4172    0.6639    2.4057 N   0  0  0  0  0  0  0  0  0  0  0  0
   -0.6697    0.2436    1.2004 C   0  0  0  0  0  0  0  0  0  0  0  0
   -1.3845   -0.0451    0.0267 C   0  0  0  0  0  0  0  0  0  0  0  0
  1  2  1  0
  2  3  4  0
  3  4  4  0
  4  5  4  0
  5  6  1  0
  5  7  4  0
  7  8  4  0
  8  2  4  0
M  END
$$$$

     RDKit          3D

  8  8  0  0  0  0  0  0  0  0999 V2000
    1.2682    0.7339   -2.5388 N   0  0  0  0  0  0  0  0  0  0  0  0
    0.6306    0.3153   -1.3240 C   0  0  0  0  0  0  0  0  0  0  0  0
   -0.7692    0.3233   -1.2556 C   0  0  0  0  0  0  0  0  0  0  0  0
   -1.4372   -0.1330   -0.1117 C   0  0  0  0  0  0  0  0  0  0  0  0
   -0.6955   -0.6092    0.9883 C   0  0  0  0  0  0  0  0  0  0  0  0
   -1.3447   -1.0854    2.1751 N   0  0  0  0  0  0  0  0  0  0  0  0
    0.7040   -0.6100    0.9252 C   0  0  0  0  0  0  0  0  0  0  0  0
    1.3781   -0.1425   -0.2144 C   0  0  0  0  0  0  0  0  0  0  0  0
  1  2  1  0
  2  3  4  0
  3  4  4  0
  4  5  4  0
  5  6  1  0
  5  7  4  0
  7  8  4  0
  8  2  4  0
M  END
$$$$

     RDKit          3D

  8  8  0  0  0  0  0  0  0  0999 V2000
   -1.4021    1.0474   -2.4171 N   0  0  0  0  0  0  0  0  0  0  0  0
   -0.7048    0.4709   -1.3041 C   0  0  0  0  0  0  0  0  0  0  0  0
    0.6867    0.3214   -1.3797 C   0  0  0  0  0  0  0  0  0  0  0  0
    1.4028   -0.2908   -0.3428 C   0  0  0  0  0  0  0  0  0  0  0  0
    0.7186   -0.7669    0.7939 C   0  0  0  0  0  0  0  0  0  0  0  0
    1.4177   -1.4024    1.8728 N   0  0  0  0  0  0  0  0  0  0  0  0
   -0.6711   -0.6101    0.8755 C   0  0  0  0  0  0  0  0  0  0  0  0
   -1.3915    0.0142   -0.1555 C   0  0  0  0  0  0  0  0  0  0  0  0
  1  2  1  0
  2  3  4  0
  3  4  4  0
  4  5  4  0
  5  6  1  0
  5  7  4  0
  7  8  4  0
  8  2  4  0
M  END
$$$$

     RDKit          3D

  8  8  0  0  0  0  0  0  0  0999 V2000
   -1.2643    2.4624   -0.5687 N   0  0  0  0  0  0  0  0  0  0  0  0
   -0.6352    1.2237   -0.2117 C   0  0  0  0  0  0  0  0  0  0  0  0
    0.7560    1.1933   -0.0452 C   0  0  0  0  0  0  0  0  0  0  0  0
    1.4209   -0.0052    0.2456 C   0  0  0  0  0  0  0  0  0  0  0  0
    0.6848   -1.2014    0.3679 C   0  0  0  0  0  0  0  0  0  0  0  0
    1.3322   -2.4496    0.6503 N   0  0  0  0  0  0  0  0  0  0  0  0
   -0.7071   -1.1712    0.2122 C   0  0  0  0  0  0  0  0  0  0  0  0
   -1.3791    0.0301   -0.0649 C   0  0  0  0  0  0  0  0  0  0  0  0
  1  2  1  0
  2  3  4  0
  3  4  4  0
  4  5  4  0
  5  6  1  0
  5  7  4  0
  7  8  4  0
  8  2  4  0
M  END
$$$$
