
     RDKit          3D

  8  8  0  0  0  0  0  0  0  0999 V2000
   -1.3666    0.3186    2.3264 F   0  0  0  0  0  0  0  0  0  0  0  0
   -0.7054    0.1703    1.1498 C   0  0  0  0  0  0  0  0  0  0  0  0
   -1.4145   -0.0553   -0.0442 C   0  0  0  0  0  0  0  0  0  0  0  0
   -0.7002   -0.2444   -1.2377 C   0  0  0  0  0  0  0  0  0  0  0  0
    0.6958   -0.2070   -1.2421 C   0  0  0  0  0  0  0  0  0  0  0  0
    1.4079    0.0243   -0.0537 C   0  0  0  0  0  0  0  0  0  0  0  0
    0.6938    0.2080    1.1460 C   0  0  0  0  0  0  0  0  0  0  0  0
    1.3499    0.3834    2.3216 F   0  0  0  0  0  0  0  0  0  0  0  0
  1  2  1  0
  2  3  4  0
  3  4  4  0
  4  5  4  0
  5  6  4  0
  6  7  4  0
  7  8  1  0
  7  2  4  0
M  END
$$$$

     RDKit          3D

  8  8  0  0  0  0  0  0  0  0999 V2000
   -1.5022    2.0736    1.1616 F   0  0  0  0  0  0  0  0  0  0  0  0
   -0.7741    1.0746    0.5998 C   0  0  0  0  0  0  0  0  0  0  0  0
   -1.4145   -0.0172   -0.0144 C   0  0  0  0  0  0  0  0  0  0  0  0
   -0.6343   -1.0138   -0.6214 C   0  0  0  0  0  0  0  0  0  0  0  0
    0.7593   -0.9256   -0.6146 C   0  0  0  0  0  0  0  0  0  0  0  0
    1.4034    0.1593    0.0030 C   0  0  0  0  0  0  0  0  0  0  0  0
    0.6227    1.1635    0.6070 C   0  0  0  0  0  0  0  0  0  0  0  0
    1.2093    2.2516    1.1687 F   0  0  0  0  0  0  0  0  0  0  0  0
  1  2  1  0
  2  3  4  0
  3  4  4  0
  4  5  4  0
  5  6  4  0
  6  7  4  0
  7  8  1  0
  7  2  4  0
M  END
$$$$

     RDKit          3D

  8  8  0  0  0  0  0  0  0  0999 V2000
   -1.2018   -2.0598    1.3789 F   0  0  0  0  0  0  0  0  0  0  0  0
   -0.6208   -1.0471    0.6858 C   0  0  0  0  0  0  0  0  0  0  0  0
   -1.4107   -0.0978    0.0119 C   0  0  0  0  0  0  0  0  0  0  0  0
   -0.7797    0.9139   -0.7289 C   0  0  0  0  0  0  0  0  0  0  0  0
    0.6136    0.9802   -0.7953 C   0  0  0  0  0  0  0  0  0  0  0  0
    1.4065    0.0385   -0.1189 C   0  0  0  0  0  0  0  0  0  0  0  0
    0.7758   -0.9811    0.6197 C   0  0  0  0  0  0  0  0  0  0  0  0
    1.5094   -1.9378    1.2442 F   0  0  0  0  0  0  0  0  0  0  0  0
  1  2  1  0
  2  3  4  0
  3  4  4  0
  4  5  4  0
  5  6  4  0
  6  7  4  0
  7  8  1  0
  7  2  4  0
M  END
$$$$

     RDKit          3D

  8  8  0  0  0  0  0  0  0  0999 V2000
    1.3423    2.0437    1.4311 F   0  0  0  0  0  0  0  0  0  0  0  0
    0.6924    1.0511    0.7709 C   0  0  0  0  0  0  0  0  0  0  0  0
    1.4150    0.0468    0.1010 C   0  0  0  0  0  0  0  0  0  0  0  0
    0.7144   -0.9878   -0.5385 C   0  0  0  0  0  0  0  0  0  0  0  0
   -0.6814   -1.0204   -0.5132 C   0  0  0  0  0  0  0  0  0  0  0  0
   -1.4074   -0.0165    0.1489 C   0  0  0  0  0  0  0  0  0  0  0  0
   -0.7067    1.0191    0.7966 C   0  0  0  0  0  0  0  0  0  0  0  0
   -1.3736    1.9779    1.4889 F   0  0  0  0  0  0  0  0  0  0  0  0
  1  2  1  0
  2  3  4  0
  3  4  4  0
  4  5  4  0
  5  6  4  0
  6  7  4  0
  7  8  1  0
  7  2  4  0
M  END
$$$$

     RDKit          3D

  8  8  0  0  0  0  0  0  0  0999 V2000
   -1.3265   -1.4346   -2.0719 F   0  0  0  0  0  0  0  0  0  0  0  0
   -0.6845   -0.7389   -1.0986 C   0  0  0  0  0  0  0  0  0  0  0  0
   -1.4151   -0.0373   -0.1221 C   0  0  0  0  0  0  0  0  0  0  0  0
   -0.7224    0.7051    0.8471 C   0  0  0  0  0  0  0  0  0  0  0  0
    0.6735    0.7461    0.8451 C   0  0  0  0  0  0  0  0  0  0  0  0
    1.4073    0.0420   -0.1238 C   0  0  0  0  0  0  0  0  0  0  0  0
    0.7146   -0.6984   -1.1010 C   0  0  0  0  0  0  0  0  0  0  0  0
    1.3894   -1.3496   -2.0828 F   0  0  0  0  0  0  0  0  0  0  0  0
  1  2  1  0
  2  3  4  0
  3  4  4  0
  4  5  4  0
  5  6  4  0
  6  7  4  0
  7  8  1  0
  7  2  4  0
M  END
$$$$

     RDKit          3D

  8  8  0  0  0  0  0  0  0  0999 V2000
    1.2298   -2.1937   -1.1611 F   0  0  0  0  0  0  0  0  0  0  0  0
    0.6352   -1.1175   -0.5851 C   0  0  0  0  0  0  0  0  0  0  0  0
    1.4118   -0.0747   -0.0476 C   0  0  0  0  0  0  0  0  0  0  0  0
    0.7670    1.0158    0.5569 C   0  0  0  0  0  0  0  0  0  0  0  0
   -0.6268    1.0652    0.6277 C   0  0  0  0  0  0  0  0  0  0  0  0
   -1.4061    0.0230    0.0990 C   0  0  0  0  0  0  0  0  0  0  0  0
   -0.7618   -1.0694   -0.5128 C   0  0  0  0  0  0  0  0  0  0  0  0
   -1.4839   -2.0758   -1.0688 F   0  0  0  0  0  0  0  0  0  0  0  0
  1  2  1  0
  2  3  4  0
  3  4  4  0
  4  5  4  0
  5  6  4  0
  6  7  4  0
  7  8  1  0
  7  2  4  0
M  END
$$$$

     RDKit          3D

  8  8  0  0  0  0  0  0  0  0999 V2000
   -1.4205    2.0807   -1.1053 F   0  0  0  0  0  0  0  0  0  0  0  0
   -0.7330    1.0645   -0.5237 C   0  0  0  0  0  0  0  0  0  0  0  0
   -1.4137   -0.0442    0.0120 C   0  0  0  0  0  0  0  0  0  0  0  0
   -0.6729   -1.0865    0.5909 C   0  0  0  0  0  0  0  0  0  0  0  0
    0.7217   -1.0271    0.6325 C   0  0  0  0  0  0  0  0  0  0  0  0
    1.4061    0.0743    0.0925 C   0  0  0  0  0  0  0  0  0  0  0  0
    0.6649    1.1237   -0.4840 C   0  0  0  0  0  0  0  0  0  0  0  0
    1.2908    2.2213   -0.9808 F   0  0  0  0  0  0  0  0  0  0  0  0
  1  2  1  0
  2  3  4  0
  3  4  4  0
  4  5  4  0
  5  6  4  0
  6  7  4  0
  7  8  1  0
  7  2  4  0
M  END
$$$$

     RDKit          3D

  8  8  0  0  0  0  0  0  0  0999 V2000
   -1.4165    0.6436   -2.4705 F   0  0  0  0  0  0  0  0  0  0  0  0
   -0.7309    0.3176   -1.3448 C   0  0  0  0  0  0  0  0  0  0  0  0
   -1.4154    0.0211   -0.1519 C   0  0  0  0  0  0  0  0  0  0  0  0
   -0.6770   -0.2951    0.9991 C   0  0  0  0  0  0  0  0  0  0  0  0
    0.7189   -0.3124    0.9636 C   0  0  0  0  0  0  0  0  0  0  0  0
    1.4069   -0.0100   -0.2231 C   0  0  0  0  0  0  0  0  0  0  0  0
    0.6683    0.3022   -1.3806 C   0  0  0  0  0  0  0  0  0  0  0  0
    1.2987    0.5618   -2.5547 F   0  0  0  0  0  0  0  0  0  0  0  0
  1  2  1  0
  2  3  4  0
  3  4  4  0
  4  5  4  0
  5  6  4  0
  6  7  4  0
  7  8  1  0
  7  2  4  0
M  END
$$$$

     RDKit          3D

  8  8  0  0  0  0  0  0  0  0999 V2000
    1.3995    2.3783    0.4035 F   0  0  0  0  0  0  0  0  0  0  0  0
    0.7221    1.2121    0.2462 C   0  0  0  0  0  0  0  0  0  0  0  0
    1.4156    0.0038    0.0500 C   0  0  0  0  0  0  0  0  0  0  0  0
    0.6858   -1.1820   -0.1269 C   0  0  0  0  0  0  0  0  0  0  0  0
   -0.7105   -1.1642   -0.1122 C   0  0  0  0  0  0  0  0  0  0  0  0
   -1.4074    0.0408    0.0759 C   0  0  0  0  0  0  0  0  0  0  0  0
   -0.6774    1.2309    0.2592 C   0  0  0  0  0  0  0  0  0  0  0  0
   -1.3170    2.4076    0.4822 F   0  0  0  0  0  0  0  0  0  0  0  0
  1  2  1  0
  2  3  4  0
  3  4  4  0
  4  5  4  0
  5  6  4  0
  6  7  4  0
  7  8  1  0
  7  2  4  0
M  END
$$$$

     RDKit          3D

  8  8  0  0  0  0  0  0  0  0999 V2000
    1.3420   -0.9697    2.2014 F   0  0  0  0  0  0  0  0  0  0  0  0
    0.6923   -0.4775    1.1155 C   0  0  0  0  0  0  0  0  0  0  0  0
    1.4149    0.0211    0.0163 C   0  0  0  0  0  0  0  0  0  0  0  0
    0.7162    0.4644   -1.1171 C   0  0  0  0  0  0  0  0  0  0  0  0
   -0.6795    0.4306   -1.1475 C   0  0  0  0  0  0  0  0  0  0  0  0
   -1.4065   -0.0500   -0.0457 C   0  0  0  0  0  0  0  0  0  0  0  0
   -0.7067   -0.5115    1.0858 C   0  0  0  0  0  0  0  0  0  0  0  0
   -1.3742   -1.0358    2.1455 F   0  0  0  0  0  0  0  0  0  0  0  0
  1  2  1  0
  2  3  4  0
  3  4  4  0
  4  5  4  0
  5  6  4  0
  6  7  4  0
  7  8  1  0
  7  2  4  0
M  END
$$$$

     RDKit          3D

  8  8  0  0  0  0  0  0  0  0999 V2000
    1.4408   -1.7077    1.5712 F   0  0  0  0  0  0  0  0  0  0  0  0
    0.7426   -0.8862    0.7458 C   0  0  0  0  0  0  0  0  0  0  0  0
    1.4147   -0.0259   -0.1412 C   0  0  0  0  0  0  0  0  0  0  0  0
    0.6673    0.8566   -0.9362 C   0  0  0  0  0  0  0  0  0  0  0  0
   -0.7273    0.8679   -0.8637 C   0  0  0  0  0  0  0  0  0  0  0  0
   -1.4042   -0.0015    0.0077 C   0  0  0  0  0  0  0  0  0  0  0  0
   -0.6552   -0.8756    0.8189 C   0  0  0  0  0  0  0  0  0  0  0  0
   -1.2730   -1.6887    1.7137 F   0  0  0  0  0  0  0  0  0  0  0  0
  1  2  1  0
  2  3  4  0
  3  4  4  0
  4  5  4  0
  5  6  4  0
  6  7  4  0
  7  8  1  0
  7  2  4  0
M  END
$$$$

     RDKit          3D

  8  8  0  0  0  0  0  0  0  0999 V2000
    1.4742    2.1609   -0.8751 F   0  0  0  0  0  0  0  0  0  0  0  0
    0.7605    1.1135   -0.3882 C   0  0  0  0  0  0  0  0  0  0  0  0
    1.4155   -0.0281    0.1085 C   0  0  0  0  0  0  0  0  0  0  0  0
    0.6497   -1.1109    0.5672 C   0  0  0  0  0  0  0  0  0  0  0  0
   -0.7454   -1.0521    0.5448 C   0  0  0  0  0  0  0  0  0  0  0  0
   -1.4044    0.0868    0.0532 C   0  0  0  0  0  0  0  0  0  0  0  0
   -0.6377    1.1724   -0.4126 C   0  0  0  0  0  0  0  0  0  0  0  0
   -1.2404    2.3018   -0.8649 F   0  0  0  0  0  0  0  0  0  0  0  0
  1  2  1  0
  2  3  4  0
  3  4  4  0
  4  5  4  0
  5  6  4  0
  6  7  4  0
  7  8  1  0
  7  2  4  0
M  END
$$$$

     RDKit          3D

  7  7  0  0  0  0  0  0  0  0999 V2000
    1.3572   -2.3845    0.5640 F   0  0  0  0  0  0  0  0  0  0  0  0
    0.6974   -1.2093    0.4017 C   0  0  0  0  0  0  0  0  0  0  0  0
    1.4049   -0.0136    0.1789 C   0  0  0  0  0  0  0  0  0  0  0  0
    0.6878    1.1773   -0.0208 C   0  0  0  0  0  0  0  0  0  0  0  0
   -0.7091    1.1767    0.0021 C   0  0  0  0  0  0  0  0  0  0  0  0
   -1.4173   -0.0145    0.2303 C   0  0  0  0  0  0  0  0  0  0  0  0
   -0.7008   -1.2074    0.4241 C   0  0  0  0  0  0  0  0  0  0  0  0
  1  2  1  0
  2  3  4  0
  3  4  4  0
  4  5  4  0
  5  6  4  0
  6  7  4  0
  7  2  4  0
M  END
$$$$

     RDKit          3D

  7  7  0  0  0  0  0  0  0  0999 V2000
    1.4208   -0.7179   -2.1451 F   0  0  0  0  0  0  0  0  0  0  0  0
    0.7300   -0.3497   -1.0361 C   0  0  0  0  0  0  0  0  0  0  0  0
    1.4041   -0.0384    0.1591 C   0  0  0  0  0  0  0  0  0  0  0  0
    0.6548    0.3034    1.2968 C   0  0  0  0  0  0  0  0  0  0  0  0
   -0.7409    0.3351    1.2439 C   0  0  0  0  0  0  0  0  0  0  0  0
   -1.4157    0.0306    0.0503 C   0  0  0  0  0  0  0  0  0  0  0  0
   -0.6671   -0.3173   -1.0865 C   0  0  0  0  0  0  0  0  0  0  0  0
  1  2  1  0
  2  3  4  0
  3  4  4  0
  4  5  4  0
  5  6  4  0
  6  7  4  0
  7  2  4  0
M  END
$$$$

     RDKit          3D

  7  7  0  0  0  0  0  0  0  0999 V2000
   -1.3079    1.1481    2.0709 F   0  0  0  0  0  0  0  0  0  0  0  0
   -0.6725    0.5882    1.0101 C   0  0  0  0  0  0  0  0  0  0  0  0
   -1.4041   -0.0279   -0.0219 C   0  0  0  0  0  0  0  0  0  0  0  0
   -0.7116   -0.6218   -1.0897 C   0  0  0  0  0  0  0  0  0  0  0  0
    0.6850   -0.6051   -1.1265 C   0  0  0  0  0  0  0  0  0  0  0  0
    1.4175    0.0036   -0.0942 C   0  0  0  0  0  0  0  0  0  0  0  0
    0.7252    0.6036    0.9710 C   0  0  0  0  0  0  0  0  0  0  0  0
  1  2  1  0
  2  3  4  0
  3  4  4  0
  4  5  4  0
  5  6  4  0
  6  7  4  0
  7  2  4  0
M  END
$$$$

     RDKit          3D

  7  7  0  0  0  0  0  0  0  0999 V2000
   -1.1584   -1.3403   -2.0918 F   0  0  0  0  0  0  0  0  0  0  0  0
   -0.5963   -0.6717   -1.0527 C   0  0  0  0  0  0  0  0  0  0  0  0
   -1.4004   -0.0577   -0.0747 C   0  0  0  0  0  0  0  0  0  0  0  0
   -0.7837    0.6015    1.0013 C   0  0  0  0  0  0  0  0  0  0  0  0
    0.6091    0.6494    1.0998 C   0  0  0  0  0  0  0  0  0  0  0  0
    1.4137    0.0416    0.1221 C   0  0  0  0  0  0  0  0  0  0  0  0
    0.7975   -0.6239   -0.9508 C   0  0  0  0  0  0  0  0  0  0  0  0
  1  2  1  0
  2  3  4  0
  3  4  4  0
  4  5  4  0
  5  6  4  0
  6  7  4  0
  7  2  4  0
M  END
$$$$

     RDKit          3D

  7  7  0  0  0  0  0  0  0  0999 V2000
    1.3769    2.3931   -0.1637 F   0  0  0  0  0  0  0  0  0  0  0  0
    0.7074    1.2138   -0.1032 C   0  0  0  0  0  0  0  0  0  0  0  0
    1.4011    0.0025    0.0743 C   0  0  0  0  0  0  0  0  0  0  0  0
    0.6735   -1.1962    0.1524 C   0  0  0  0  0  0  0  0  0  0  0  0
   -0.7204   -1.1874    0.0581 C   0  0  0  0  0  0  0  0  0  0  0  0
   -1.4154    0.0212   -0.1114 C   0  0  0  0  0  0  0  0  0  0  0  0
   -0.6879    1.2202   -0.1955 C   0  0  0  0  0  0  0  0  0  0  0  0
  1  2  1  0
  2  3  4  0
  3  4  4  0
  4  5  4  0
  5  6  4  0
  6  7  4  0
  7  2  4  0
M  END
$$$$

     RDKit          3D

  7  7  0  0  0  0  0  0  0  0999 V2000
   -1.3193   -0.0983    2.2633 F   0  0  0  0  0  0  0  0  0  0  0  0
   -0.6784   -0.0596    1.0673 C   0  0  0  0  0  0  0  0  0  0  0  0
   -1.4022    0.0829   -0.1310 C   0  0  0  0  0  0  0  0  0  0  0  0
   -0.7033    0.1478   -1.3475 C   0  0  0  0  0  0  0  0  0  0  0  0
    0.6918    0.0756   -1.3691 C   0  0  0  0  0  0  0  0  0  0  0  0
    1.4166   -0.0599   -0.1737 C   0  0  0  0  0  0  0  0  0  0  0  0
    0.7179   -0.1315    1.0430 C   0  0  0  0  0  0  0  0  0  0  0  0
  1  2  1  0
  2  3  4  0
  3  4  4  0
  4  5  4  0
  5  6  4  0
  6  7  4  0
  7  2  4  0
M  END
$$$$

     RDKit          3D

  7  7  0  0  0  0  0  0  0  0999 V2000
   -1.2388    0.9840    2.2181 F   0  0  0  0  0  0  0  0  0  0  0  0
   -0.6369    0.4982    1.1026 C   0  0  0  0  0  0  0  0  0  0  0  0
   -1.3993    0.1204   -0.0181 C   0  0  0  0  0  0  0  0  0  0  0  0
   -0.7407   -0.3592   -1.1621 C   0  0  0  0  0  0  0  0  0  0  0  0
    0.6527   -0.4578   -1.1895 C   0  0  0  0  0  0  0  0  0  0  0  0
    1.4161   -0.0741   -0.0748 C   0  0  0  0  0  0  0  0  0  0  0  0
    0.7577    0.4003    1.0720 C   0  0  0  0  0  0  0  0  0  0  0  0
  1  2  1  0
  2  3  4  0
  3  4  4  0
  4  5  4  0
  5  6  4  0
  6  7  4  0
  7  2  4  0
M  END
$$$$

     RDKit          3D

  7  7  0  0  0  0  0  0  0  0999 V2000
   -1.5287    1.1989   -2.1690 F   0  0  0  0  0  0  0  0  0  0  0  0
   -0.7846    0.5868   -1.2128 C   0  0  0  0  0  0  0  0  0  0  0  0
   -1.4017   -0.0457   -0.1181 C   0  0  0  0  0  0  0  0  0  0  0  0
   -0.5995   -0.6240    0.8788 C   0  0  0  0  0  0  0  0  0  0  0  0
    0.7935   -0.5897    0.7766 C   0  0  0  0  0  0  0  0  0  0  0  0
    1.4120    0.0271   -0.3234 C   0  0  0  0  0  0  0  0  0  0  0  0
    0.6098    0.6214   -1.3120 C   0  0  0  0  0  0  0  0  0  0  0  0
  1  2  1  0
  2  3  4  0
  3  4  4  0
  4  5  4  0
  5  6  4  0
  6  7  4  0
  7  2  4  0
M  END
$$$$

     RDKit          3D

  7  7  0  0  0  0  0  0  0  0999 V2000
    1.3708    2.2537    0.9303 F   0  0  0  0  0  0  0  0  0  0  0  0
    0.7039    1.1362    0.5444 C   0  0  0  0  0  0  0  0  0  0  0  0
    1.4048   -0.0078    0.1208 C   0  0  0  0  0  0  0  0  0  0  0  0
    0.6824   -1.1250   -0.3284 C   0  0  0  0  0  0  0  0  0  0  0  0
   -0.7146   -1.1093   -0.3374 C   0  0  0  0  0  0  0  0  0  0  0  0
   -1.4171    0.0252    0.1011 C   0  0  0  0  0  0  0  0  0  0  0  0
   -0.6944    1.1495    0.5345 C   0  0  0  0  0  0  0  0  0  0  0  0
  1  2  1  0
  2  3  4  0
  3  4  4  0
  4  5  4  0
  5  6  4  0
  6  7  4  0
  7  2  4  0
M  END
$$$$

     RDKit          3D

  7  7  0  0  0  0  0  0  0  0999 V2000
    1.5113    2.0213   -1.0611 F   0  0  0  0  0  0  0  0  0  0  0  0
    0.7749    1.0135   -0.5275 C   0  0  0  0  0  0  0  0  0  0  0  0
    1.4019   -0.0923    0.0754 C   0  0  0  0  0  0  0  0  0  0  0  0
    0.6095   -1.0872    0.6703 C   0  0  0  0  0  0  0  0  0  0  0  0
   -0.7842   -0.9912    0.6481 C   0  0  0  0  0  0  0  0  0  0  0  0
   -1.4131    0.1032    0.0318 C   0  0  0  0  0  0  0  0  0  0  0  0
   -0.6201    1.1074   -0.5485 C   0  0  0  0  0  0  0  0  0  0  0  0
  1  2  1  0
  2  3  4  0
  3  4  4  0
  4  5  4  0
  5  6  4  0
  6  7  4  0
  7  2  4  0
M  END
$$$$

     RDKit          3D

  7  7  0  0  0  0  0  0  0  0999 V2000
    1.4795    2.3145   -0.2721 F   0  0  0  0  0  0  0  0  0  0  0  0
    0.7598    1.1697   -0.1529 C   0  0  0  0  0  0  0  0  0  0  0  0
    1.4020   -0.0626    0.0672 C   0  0  0  0  0  0  0  0  0  0  0  0
    0.6235   -1.2186    0.2376 C   0  0  0  0  0  0  0  0  0  0  0  0
   -0.7707   -1.1503    0.1755 C   0  0  0  0  0  0  0  0  0  0  0  0
   -1.4142    0.0780   -0.0486 C   0  0  0  0  0  0  0  0  0  0  0  0
   -0.6356    1.2356   -0.2147 C   0  0  0  0  0  0  0  0  0  0  0  0
  1  2  1  0
  2  3  4  0
  3  4  4  0
  4  5  4  0
  5  6  4  0
  6  7  4  0
  7  2  4  0
M  END
$$$$

     RDKit          3D

  7  7  0  0  0  0  0  0  0  0999 V2000
   -1.3557    1.5249   -1.8940 F   0  0  0  0  0  0  0  0  0  0  0  0
   -0.6980    0.8066   -0.9484 C   0  0  0  0  0  0  0  0  0  0  0  0
   -1.4004   -0.0432   -0.0745 C   0  0  0  0  0  0  0  0  0  0  0  0
   -0.6827   -0.8103    0.8572 C   0  0  0  0  0  0  0  0  0  0  0  0
    0.7095   -0.7175    0.9300 C   0  0  0  0  0  0  0  0  0  0  0  0
    1.4119    0.1422    0.0695 C   0  0  0  0  0  0  0  0  0  0  0  0
    0.6955    0.8966   -0.8749 C   0  0  0  0  0  0  0  0  0  0  0  0
  1  2  1  0
  2  3  4  0
  3  4  4  0
  4  5  4  0
  5  6  4  0
  6  7  4  0
  7  2  4  0
M  END
$$$$

     RDKit          3D

  7  7  0  0  0  0  0  0  0  0999 V2000
    1.4727   -1.1036    2.0671 F   0  0  0  0  0  0  0  0  0  0  0  0
    0.7561   -0.5686    1.0458 C   0  0  0  0  0  0  0  0  0  0  0  0
    1.4029    0.0700   -0.0281 C   0  0  0  0  0  0  0  0  0  0  0  0
    0.6284    0.6504   -1.0453 C   0  0  0  0  0  0  0  0  0  0  0  0
   -0.7663    0.5823   -1.0010 C   0  0  0  0  0  0  0  0  0  0  0  0
   -1.4146   -0.0577    0.0682 C   0  0  0  0  0  0  0  0  0  0  0  0
   -0.6401   -0.6340    1.0890 C   0  0  0  0  0  0  0  0  0  0  0  0
  1  2  1  0
  2  3  4  0
  3  4  4  0
  4  5  4  0
  5  6  4  0
  6  7  4  0
  7  2  4  0
M  END
$$$$

     RDKit          3D

  7  7  0  0  0  0  0  0  0  0999 V2000
    1.2021   -1.9145   -1.5375 F   0  0  0  0  0  0  0  0  0  0  0  0
    0.6198   -0.9856   -0.7368 C   0  0  0  0  0  0  0  0  0  0  0  0
    1.4051   -0.0909    0.0134 C   0  0  0  0  0  0  0  0  0  0  0  0
    0.7680    0.8807    0.8025 C   0  0  0  0  0  0  0  0  0  0  0  0
   -0.6263    0.9584    0.8438 C   0  0  0  0  0  0  0  0  0  0  0  0
   -1.4121    0.0624    0.1006 C   0  0  0  0  0  0  0  0  0  0  0  0
   -0.7756   -0.9058   -0.6938 C   0  0  0  0  0  0  0  0  0  0  0  0
  1  2  1  0
  2  3  4  0
  3  4  4  0
  4  5  4  0
  5  6  4  0
  6  7  4  0
  7  2  4  0
M  END
$$$$

     RDKit          3D

  7  7  0  0  0  0  0  0  0  0999 V2000
    1.3276   -2.3295    0.6084 F   0  0  0  0  0  0  0  0  0  0  0  0
    0.6842   -1.1780    0.2875 C   0  0  0  0  0  0  0  0  0  0  0  0
    1.4072    0.0035    0.0397 C   0  0  0  0  0  0  0  0  0  0  0  0
    0.7062    1.1827   -0.2612 C   0  0  0  0  0  0  0  0  0  0  0  0
   -0.6900    1.1853   -0.3108 C   0  0  0  0  0  0  0  0  0  0  0  0
   -1.4139    0.0086   -0.0574 C   0  0  0  0  0  0  0  0  0  0  0  0
   -0.7132   -1.1729    0.2373 C   0  0  0  0  0  0  0  0  0  0  0  0
  1  2  1  0
  2  3  4  0
  3  4  4  0
  4  5  4  0
  5  6  4  0
  6  7  4  0
  7  2  4  0
M  END
$$$$

     RDKit          3D

  7  7  0  0  0  0  0  0  0  0999 V2000
    1.4262   -2.2718   -0.7125 F   0  0  0  0  0  0  0  0  0  0  0  0
    0.7340   -1.1485   -0.3935 C   0  0  0  0  0  0  0  0  0  0  0  0
    1.4084    0.0469   -0.0836 C   0  0  0  0  0  0  0  0  0  0  0  0
    0.6586    1.1968    0.2136 C   0  0  0  0  0  0  0  0  0  0  0  0
   -0.7379    1.1568    0.1987 C   0  0  0  0  0  0  0  0  0  0  0  0
   -1.4130   -0.0337   -0.1167 C   0  0  0  0  0  0  0  0  0  0  0  0
   -0.6638   -1.1859   -0.4077 C   0  0  0  0  0  0  0  0  0  0  0  0
  1  2  1  0
  2  3  4  0
  3  4  4  0
  4  5  4  0
  5  6  4  0
  6  7  4  0
  7  2  4  0
M  END
$$$$

     RDKit          3D

  7  7  0  0  0  0  0  0  0  0999 V2000
    1.2844    2.3295    0.8562 F   0  0  0  0  0  0  0  0  0  0  0  0
    0.6619    1.1851    0.4747 C   0  0  0  0  0  0  0  0  0  0  0  0
    1.4079    0.0565    0.0876 C   0  0  0  0  0  0  0  0  0  0  0  0
    0.7301   -1.1194   -0.2732 C   0  0  0  0  0  0  0  0  0  0  0  0
   -0.6659   -1.1707   -0.2454 C   0  0  0  0  0  0  0  0  0  0  0  0
   -1.4123   -0.0475    0.1469 C   0  0  0  0  0  0  0  0  0  0  0  0
   -0.7351    1.1312    0.5017 C   0  0  0  0  0  0  0  0  0  0  0  0
  1  2  1  0
  2  3  4  0
  3  4  4  0
  4  5  4  0
  5  6  4  0
  6  7  4  0
  7  2  4  0
M  END
$$$$

     RDKit          3D

  7  7  0  0  0  0  0  0  0  0999 V2000
    1.2126   -2.3201   -0.8371 F   0  0  0  0  0  0  0  0  0  0  0  0
    0.6256   -1.1692   -0.4205 C   0  0  0  0  0  0  0  0  0  0  0  0
    1.4059   -0.0615   -0.0412 C   0  0  0  0  0  0  0  0  0  0  0  0
    0.7645    1.1030    0.4115 C   0  0  0  0  0  0  0  0  0  0  0  0
   -0.6296    1.1631    0.4831 C   0  0  0  0  0  0  0  0  0  0  0  0
   -1.4106    0.0603    0.1002 C   0  0  0  0  0  0  0  0  0  0  0  0
   -0.7694   -1.1073   -0.3462 C   0  0  0  0  0  0  0  0  0  0  0  0
  1  2  1  0
  2  3  4  0
  3  4  4  0
  4  5  4  0
  5  6  4  0
  6  7  4  0
  7  2  4  0
M  END
$$$$

     RDKit          3D

  7  7  0  0  0  0  0  0  0  0999 V2000
    1.4851    2.3069   -0.3550 F   0  0  0  0  0  0  0  0  0  0  0  0
    0.7647    1.1648   -0.2156 C   0  0  0  0  0  0  0  0  0  0  0  0
    1.4034   -0.0579    0.0616 C   0  0  0  0  0  0  0  0  0  0  0  0
    0.6233   -1.2139    0.2273 C   0  0  0  0  0  0  0  0  0  0  0  0
   -0.7681   -1.1528    0.1168 C   0  0  0  0  0  0  0  0  0  0  0  0
   -1.4074    0.0657   -0.1649 C   0  0  0  0  0  0  0  0  0  0  0  0
   -0.6282    1.2238   -0.3239 C   0  0  0  0  0  0  0  0  0  0  0  0
  1  2  1  0
  2  3  4  0
  3  4  4  0
  4  5  4  0
  5  6  4  0
  6  7  4  0
  7  2  4  0
M  END
$$$$

     RDKit          3D

  7  7  0  0  0  0  0  0  0  0999 V2000
   -1.3623    1.4161    1.9497 F   0  0  0  0  0  0  0  0  0  0  0  0
   -0.7016    0.7194    0.9901 C   0  0  0  0  0  0  0  0  0  0  0  0
   -1.4089   -0.0156    0.0208 C   0  0  0  0  0  0  0  0  0  0  0  0
   -0.6922   -0.7077   -0.9690 C   0  0  0  0  0  0  0  0  0  0  0  0
    0.7041   -0.6657   -0.9939 C   0  0  0  0  0  0  0  0  0  0  0  0
    1.4118    0.0733   -0.0319 C   0  0  0  0  0  0  0  0  0  0  0  0
    0.6958    0.7613    0.9620 C   0  0  0  0  0  0  0  0  0  0  0  0
  1  2  1  0
  2  3  4  0
  3  4  4  0
  4  5  4  0
  5  6  4  0
  6  7  4  0
  7  2  4  0
M  END
$$$$

     RDKit          3D

  7  7  0  0  0  0  0  0  0  0999 V2000
   -1.1808    2.4509    0.3697 F   0  0  0  0  0  0  0  0  0  0  0  0
   -0.6093    1.2438    0.1268 C   0  0  0  0  0  0  0  0  0  0  0  0
   -1.3977    0.1356   -0.2343 C   0  0  0  0  0  0  0  0  0  0  0  0
   -0.7738   -1.1026   -0.4580 C   0  0  0  0  0  0  0  0  0  0  0  0
    0.6104   -1.2345   -0.3217 C   0  0  0  0  0  0  0  0  0  0  0  0
    1.3983   -0.1315    0.0459 C   0  0  0  0  0  0  0  0  0  0  0  0
    0.7757    1.1088    0.2643 C   0  0  0  0  0  0  0  0  0  0  0  0
  1  2  1  0
  2  3  4  0
  3  4  4  0
  4  5  4  0
  5  6  4  0
  6  7  4  0
  7  2  4  0
M  END
$$$$

     RDKit          3D

  7  7  0  0  0  0  0  0  0  0999 V2000
   -1.4725   -0.2914   -2.4260 F   0  0  0  0  0  0  0  0  0  0  0  0
   -0.7578   -0.1432   -1.2815 C   0  0  0  0  0  0  0  0  0  0  0  0
   -1.4063   -0.0601   -0.0354 C   0  0  0  0  0  0  0  0  0  0  0  0
   -0.6331    0.0723    1.1295 C   0  0  0  0  0  0  0  0  0  0  0  0
    0.7612    0.1184    1.0541 C   0  0  0  0  0  0  0  0  0  0  0  0
    1.4109    0.0281   -0.1878 C   0  0  0  0  0  0  0  0  0  0  0  0
    0.6380   -0.0987   -1.3541 C   0  0  0  0  0  0  0  0  0  0  0  0
  1  2  1  0
  2  3  4  0
  3  4  4  0
  4  5  4  0
  5  6  4  0
  6  7  4  0
  7  2  4  0
M  END
$$$$

     RDKit          3D

  7  7  0  0  0  0  0  0  0  0999 V2000
   -1.3726   -2.2835   -0.6171 F   0  0  0  0  0  0  0  0  0  0  0  0
   -0.7073   -1.1628   -0.2378 C   0  0  0  0  0  0  0  0  0  0  0  0
   -1.4091    0.0052    0.1123 C   0  0  0  0  0  0  0  0  0  0  0  0
   -0.6874    1.1616    0.4492 C   0  0  0  0  0  0  0  0  0  0  0  0
    0.7097    1.1502    0.4512 C   0  0  0  0  0  0  0  0  0  0  0  0
    1.4129   -0.0158    0.1064 C   0  0  0  0  0  0  0  0  0  0  0  0
    0.6911   -1.1718   -0.2351 C   0  0  0  0  0  0  0  0  0  0  0  0
  1  2  1  0
  2  3  4  0
  3  4  4  0
  4  5  4  0
  5  6  4  0
  6  7  4  0
  7  2  4  0
M  END
$$$$

     RDKit          3D

  7  7  0  0  0  0  0  0  0  0999 V2000
   -1.3204    0.9863   -2.1463 F   0  0  0  0  0  0  0  0  0  0  0  0
   -0.6801    0.4843   -1.0597 C   0  0  0  0  0  0  0  0  0  0  0  0
   -1.4082   -0.0265    0.0305 C   0  0  0  0  0  0  0  0  0  0  0  0
   -0.7139   -0.4896    1.1597 C   0  0  0  0  0  0  0  0  0  0  0  0
    0.6824   -0.4575    1.1963 C   0  0  0  0  0  0  0  0  0  0  0  0
    1.4119    0.0478    0.1075 C   0  0  0  0  0  0  0  0  0  0  0  0
    0.7173    0.5154   -1.0207 C   0  0  0  0  0  0  0  0  0  0  0  0
  1  2  1  0
  2  3  4  0
  3  4  4  0
  4  5  4  0
  5  6  4  0
  6  7  4  0
  7  2  4  0
M  END
$$$$

     RDKit          3D

  7  7  0  0  0  0  0  0  0  0999 V2000
    1.2955   -2.4294    0.1599 F   0  0  0  0  0  0  0  0  0  0  0  0
    0.6670   -1.2353    0.0126 C   0  0  0  0  0  0  0  0  0  0  0  0
    1.4067   -0.0503   -0.1551 C   0  0  0  0  0  0  0  0  0  0  0  0
    0.7249    1.1733   -0.2523 C   0  0  0  0  0  0  0  0  0  0  0  0
   -0.6708    1.2134   -0.2032 C   0  0  0  0  0  0  0  0  0  0  0  0
   -1.4124    0.0301   -0.0519 C   0  0  0  0  0  0  0  0  0  0  0  0
   -0.7297   -1.1925    0.0634 C   0  0  0  0  0  0  0  0  0  0  0  0
  1  2  1  0
  2  3  4  0
  3  4  4  0
  4  5  4  0
  5  6  4  0
  6  7  4  0
  7  2  4  0
M  END
$$$$

     RDKit          3D

  7  7  0  0  0  0  0  0  0  0999 V2000
   -1.2216   -2.4825   -0.2243 F   0  0  0  0  0  0  0  0  0  0  0  0
   -0.6306   -1.2625   -0.1532 C   0  0  0  0  0  0  0  0  0  0  0  0
   -1.4045   -0.0973   -0.0021 C   0  0  0  0  0  0  0  0  0  0  0  0
   -0.7573    1.1435    0.1122 C   0  0  0  0  0  0  0  0  0  0  0  0
    0.6366    1.2234    0.0616 C   0  0  0  0  0  0  0  0  0  0  0  0
    1.4115    0.0622   -0.0926 C   0  0  0  0  0  0  0  0  0  0  0  0
    0.7645   -1.1802   -0.2018 C   0  0  0  0  0  0  0  0  0  0  0  0
  1  2  1  0
  2  3  4  0
  3  4  4  0
  4  5  4  0
  5  6  4  0
  6  7  4  0
  7  2  4  0
M  END
$$$$
