
     RDKit          3D

  7  7  0  0  0  0  0  0  0  0999 V2000
    1.5002    1.7116    1.5640 C   0  0  0  0  0  0  0  0  0  0  0  0
    0.7602    0.6715    0.7636 C   0  0  0  0  0  0  0  0  0  0  0  0
   -0.6260    0.8150    0.5833 C   0  0  0  0  0  0  0  0  0  0  0  0
   -1.3585   -0.1351   -0.1428 C   0  0  0  0  0  0  0  0  0  0  0  0
   -0.6996   -1.2473   -0.6816 C   0  0  0  0  0  0  0  0  0  0  0  0
    0.6792   -1.3924   -0.5269 C   0  0  0  0  0  0  0  0  0  0  0  0
    1.4258   -0.4332    0.1761 C   0  0  0  0  0  0  0  0  0  0  0  0
  1  2  1  0
  2  3  4  0
  3  4  4  0
  4  5  4  0
  5  6  4  0
  6  7  4  0
  7  2  4  0
M  END
$$$$

     RDKit          3D

  7  7  0  0  0  0  0  0  0  0999 V2000
   -1.2033    2.4740   -1.0434 C   0  0  0  0  0  0  0  0  0  0  0  0
   -0.6386    1.1440   -0.6168 C   0  0  0  0  0  0  0  0  0  0  0  0
    0.7562    0.9730   -0.6024 C   0  0  0  0  0  0  0  0  0  0  0  0
    1.3271   -0.2427   -0.1995 C   0  0  0  0  0  0  0  0  0  0  0  0
    0.4944   -1.2931    0.2067 C   0  0  0  0  0  0  0  0  0  0  0  0
   -0.8923   -1.1437    0.1790 C   0  0  0  0  0  0  0  0  0  0  0  0
   -1.4744    0.0607   -0.2477 C   0  0  0  0  0  0  0  0  0  0  0  0
  1  2  1  0
  2  3  4  0
  3  4  4  0
  4  5  4  0
  5  6  4  0
  6  7  4  0
  7  2  4  0
M  END
$$$$

     RDKit          3D

  7  7  0  0  0  0  0  0  0  0999 V2000
   -1.3249   -2.4243   -0.9539 C   0  0  0  0  0  0  0  0  0  0  0  0
   -0.6966   -1.1230   -0.5273 C   0  0  0  0  0  0  0  0  0  0  0  0
    0.7036   -1.0072   -0.5493 C   0  0  0  0  0  0  0  0  0  0  0  0
    1.3330    0.1798   -0.1469 C   0  0  0  0  0  0  0  0  0  0  0  0
    0.5541    1.2553    0.2976 C   0  0  0  0  0  0  0  0  0  0  0  0
   -0.8378    1.1604    0.3075 C   0  0  0  0  0  0  0  0  0  0  0  0
   -1.4786   -0.0137   -0.1197 C   0  0  0  0  0  0  0  0  0  0  0  0
  1  2  1  0
  2  3  4  0
  3  4  4  0
  4  5  4  0
  5  6  4  0
  6  7  4  0
  7  2  4  0
M  END
$$$$

     RDKit          3D

  7  7  0  0  0  0  0  0  0  0999 V2000
    1.6960   -2.1307   -0.4046 C   0  0  0  0  0  0  0  0  0  0  0  0
    0.8486   -0.9394   -0.0401 C   0  0  0  0  0  0  0  0  0  0  0  0
   -0.5395   -1.0062   -0.2483 C   0  0  0  0  0  0  0  0  0  0  0  0
   -1.3695    0.0727    0.0883 C   0  0  0  0  0  0  0  0  0  0  0  0
   -0.8065    1.2245    0.6523 C   0  0  0  0  0  0  0  0  0  0  0  0
    0.5721    1.3120    0.8466 C   0  0  0  0  0  0  0  0  0  0  0  0
    1.4147    0.2475    0.4885 C   0  0  0  0  0  0  0  0  0  0  0  0
  1  2  1  0
  2  3  4  0
  3  4  4  0
  4  5  4  0
  5  6  4  0
  6  7  4  0
  7  2  4  0
M  END
$$$$

     RDKit          3D

  7  7  0  0  0  0  0  0  0  0999 V2000
    1.3642   -2.3396   -0.9793 C   0  0  0  0  0  0  0  0  0  0  0  0
    0.7085   -1.0874   -0.4579 C   0  0  0  0  0  0  0  0  0  0  0  0
   -0.6919   -1.0513   -0.3489 C   0  0  0  0  0  0  0  0  0  0  0  0
   -1.3443    0.0822    0.1576 C   0  0  0  0  0  0  0  0  0  0  0  0
   -0.5899    1.2010    0.5315 C   0  0  0  0  0  0  0  0  0  0  0  0
    0.7998    1.1865    0.4094 C   0  0  0  0  0  0  0  0  0  0  0  0
    1.4626    0.0564   -0.0956 C   0  0  0  0  0  0  0  0  0  0  0  0
  1  2  1  0
  2  3  4  0
  3  4  4  0
  4  5  4  0
  5  6  4  0
  6  7  4  0
  7  2  4  0
M  END
$$$$

     RDKit          3D

  7  7  0  0  0  0  0  0  0  0999 V2000
    1.5373   -0.5165   -2.1690 C   0  0  0  0  0  0  0  0  0  0  0  0
    0.7836   -0.0948   -0.9343 C   0  0  0  0  0  0  0  0  0  0  0  0
   -0.6177   -0.2003   -0.9269 C   0  0  0  0  0  0  0  0  0  0  0  0
   -1.3631    0.2076    0.1886 C   0  0  0  0  0  0  0  0  0  0  0  0
   -0.6981    0.7013    1.3180 C   0  0  0  0  0  0  0  0  0  0  0  0
    0.6938    0.7937    1.3316 C   0  0  0  0  0  0  0  0  0  0  0  0
    1.4494    0.3869    0.2203 C   0  0  0  0  0  0  0  0  0  0  0  0
  1  2  1  0
  2  3  4  0
  3  4  4  0
  4  5  4  0
  5  6  4  0
  6  7  4  0
  7  2  4  0
M  END
$$$$

     RDKit          3D

  7  7  0  0  0  0  0  0  0  0999 V2000
    1.3459    1.7782   -1.9217 C   0  0  0  0  0  0  0  0  0  0  0  0
    0.7016    0.8792   -0.8987 C   0  0  0  0  0  0  0  0  0  0  0  0
   -0.6997    0.7769   -0.8729 C   0  0  0  0  0  0  0  0  0  0  0  0
   -1.3417   -0.0699    0.0419 C   0  0  0  0  0  0  0  0  0  0  0  0
   -0.5753   -0.8017    0.9577 C   0  0  0  0  0  0  0  0  0  0  0  0
    0.8156   -0.6953    0.9560 C   0  0  0  0  0  0  0  0  0  0  0  0
    1.4680    0.1505    0.0447 C   0  0  0  0  0  0  0  0  0  0  0  0
  1  2  1  0
  2  3  4  0
  3  4  4  0
  4  5  4  0
  5  6  4  0
  6  7  4  0
  7  2  4  0
M  END
$$$$

     RDKit          3D

  7  7  0  0  0  0  0  0  0  0999 V2000
   -1.4667    1.9099    1.3315 C   0  0  0  0  0  0  0  0  0  0  0  0
   -0.7516    0.8900    0.4838 C   0  0  0  0  0  0  0  0  0  0  0  0
    0.6450    0.7780    0.5927 C   0  0  0  0  0  0  0  0  0  0  0  0
    1.3546   -0.1476   -0.1859 C   0  0  0  0  0  0  0  0  0  0  0  0
    0.6613   -0.9591   -1.0927 C   0  0  0  0  0  0  0  0  0  0  0  0
   -0.7271   -0.8721   -1.1972 C   0  0  0  0  0  0  0  0  0  0  0  0
   -1.4496    0.0331   -0.4033 C   0  0  0  0  0  0  0  0  0  0  0  0
  1  2  1  0
  2  3  4  0
  3  4  4  0
  4  5  4  0
  5  6  4  0
  6  7  4  0
  7  2  4  0
M  END
$$$$

     RDKit          3D

  7  7  0  0  0  0  0  0  0  0999 V2000
   -1.4571   -1.6087   -1.8841 C   0  0  0  0  0  0  0  0  0  0  0  0
   -0.7448   -0.6037   -1.0163 C   0  0  0  0  0  0  0  0  0  0  0  0
    0.6530   -0.6826   -0.8961 C   0  0  0  0  0  0  0  0  0  0  0  0
    1.3615    0.2487   -0.1233 C   0  0  0  0  0  0  0  0  0  0  0  0
    0.6617    1.2531    0.5572 C   0  0  0  0  0  0  0  0  0  0  0  0
   -0.7278    1.3317    0.4621 C   0  0  0  0  0  0  0  0  0  0  0  0
   -1.4466    0.4035   -0.3081 C   0  0  0  0  0  0  0  0  0  0  0  0
  1  2  1  0
  2  3  4  0
  3  4  4  0
  4  5  4  0
  5  6  4  0
  6  7  4  0
  7  2  4  0
M  END
$$$$

     RDKit          3D

  7  7  0  0  0  0  0  0  0  0999 V2000
    1.2659    2.2773    0.1861 C   0  0  0  0  0  0  0  0  0  0  0  0
    0.5386    0.9725   -0.0099 C   0  0  0  0  0  0  0  0  0  0  0  0
   -0.8652    0.9650    0.0489 C   0  0  0  0  0  0  0  0  0  0  0  0
   -1.5834   -0.2208   -0.1511 C   0  0  0  0  0  0  0  0  0  0  0  0
   -0.8965   -1.4125   -0.4053 C   0  0  0  0  0  0  0  0  0  0  0  0
    0.4979   -1.4242   -0.4463 C   0  0  0  0  0  0  0  0  0  0  0  0
    1.2304   -0.2445   -0.2345 C   0  0  0  0  0  0  0  0  0  0  0  0
  1  2  1  0
  2  3  4  0
  3  4  4  0
  4  5  4  0
  5  6  4  0
  6  7  4  0
  7  2  4  0
M  END
$$$$

     RDKit          3D

  7  7  0  0  0  0  0  0  0  0999 V2000
    1.2804    0.4757    2.1893 C   0  0  0  0  0  0  0  0  0  0  0  0
    0.5390    0.0862    0.9370 C   0  0  0  0  0  0  0  0  0  0  0  0
   -0.8603    0.2110    0.9127 C   0  0  0  0  0  0  0  0  0  0  0  0
   -1.5924   -0.1616   -0.2219 C   0  0  0  0  0  0  0  0  0  0  0  0
   -0.9236   -0.6571   -1.3462 C   0  0  0  0  0  0  0  0  0  0  0  0
    0.4671   -0.7673   -1.3439 C   0  0  0  0  0  0  0  0  0  0  0  0
    1.2139   -0.3849   -0.2174 C   0  0  0  0  0  0  0  0  0  0  0  0
  1  2  1  0
  2  3  4  0
  3  4  4  0
  4  5  4  0
  5  6  4  0
  6  7  4  0
  7  2  4  0
M  END
$$$$

     RDKit          3D

  7  7  0  0  0  0  0  0  0  0999 V2000
    1.2849    2.0487    0.9490 C   0  0  0  0  0  0  0  0  0  0  0  0
    0.5259    0.8288    0.4956 C   0  0  0  0  0  0  0  0  0  0  0  0
   -0.8461    0.9500    0.2180 C   0  0  0  0  0  0  0  0  0  0  0  0
   -1.5960   -0.1629   -0.1834 C   0  0  0  0  0  0  0  0  0  0  0  0
   -0.9718   -1.4077   -0.3164 C   0  0  0  0  0  0  0  0  0  0  0  0
    0.3940   -1.5388   -0.0641 C   0  0  0  0  0  0  0  0  0  0  0  0
    1.1599   -0.4280    0.3264 C   0  0  0  0  0  0  0  0  0  0  0  0
  1  2  1  0
  2  3  4  0
  3  4  4  0
  4  5  4  0
  5  6  4  0
  6  7  4  0
  7  2  4  0
M  END
$$$$

     RDKit          3D

  7  7  0  0  0  0  0  0  0  0999 V2000
    1.3811    1.0116    1.8635 C   0  0  0  0  0  0  0  0  0  0  0  0
    0.5599    0.5389    0.6922 C   0  0  0  0  0  0  0  0  0  0  0  0
   -0.7894    0.2077    0.9016 C   0  0  0  0  0  0  0  0  0  0  0  0
   -1.5963   -0.2135   -0.1630 C   0  0  0  0  0  0  0  0  0  0  0  0
   -1.0523   -0.3127   -1.4479 C   0  0  0  0  0  0  0  0  0  0  0  0
    0.2910   -0.0069   -1.6671 C   0  0  0  0  0  0  0  0  0  0  0  0
    1.1143    0.4042   -0.6058 C   0  0  0  0  0  0  0  0  0  0  0  0
  1  2  1  0
  2  3  4  0
  3  4  4  0
  4  5  4  0
  5  6  4  0
  6  7  4  0
  7  2  4  0
M  END
$$$$

     RDKit          3D

  7  7  0  0  0  0  0  0  0  0999 V2000
    0.9252   -2.5672   -0.5654 C   0  0  0  0  0  0  0  0  0  0  0  0
    0.3904   -1.1756   -0.3488 C   0  0  0  0  0  0  0  0  0  0  0  0
   -0.9974   -0.9660   -0.4135 C   0  0  0  0  0  0  0  0  0  0  0  0
   -1.5399    0.3067   -0.1948 C   0  0  0  0  0  0  0  0  0  0  0  0
   -0.6912    1.3831    0.0844 C   0  0  0  0  0  0  0  0  0  0  0  0
    0.6901    1.1941    0.1316 C   0  0  0  0  0  0  0  0  0  0  0  0
    1.2477   -0.0744   -0.0988 C   0  0  0  0  0  0  0  0  0  0  0  0
  1  2  1  0
  2  3  4  0
  3  4  4  0
  4  5  4  0
  5  6  4  0
  6  7  4  0
  7  2  4  0
M  END
$$$$

     RDKit          3D

  7  7  0  0  0  0  0  0  0  0999 V2000
    1.4748   -1.7609   -1.4963 C   0  0  0  0  0  0  0  0  0  0  0  0
    0.6335   -0.8848   -0.6052 C   0  0  0  0  0  0  0  0  0  0  0  0
   -0.7607   -0.8821   -0.7798 C   0  0  0  0  0  0  0  0  0  0  0  0
   -1.5792   -0.0650    0.0103 C   0  0  0  0  0  0  0  0  0  0  0  0
   -1.0042    0.7526    0.9890 C   0  0  0  0  0  0  0  0  0  0  0  0
    0.3766    0.7451    1.1874 C   0  0  0  0  0  0  0  0  0  0  0  0
    1.2073   -0.0794    0.4107 C   0  0  0  0  0  0  0  0  0  0  0  0
  1  2  1  0
  2  3  4  0
  3  4  4  0
  4  5  4  0
  5  6  4  0
  6  7  4  0
  7  2  4  0
M  END
$$$$

     RDKit          3D

  7  7  0  0  0  0  0  0  0  0999 V2000
    0.7978   -2.5470   -0.6481 C   0  0  0  0  0  0  0  0  0  0  0  0
    0.3083   -1.2116   -0.1514 C   0  0  0  0  0  0  0  0  0  0  0  0
   -1.0472   -0.8823   -0.3197 C   0  0  0  0  0  0  0  0  0  0  0  0
   -1.5404    0.3579    0.1055 C   0  0  0  0  0  0  0  0  0  0  0  0
   -0.6764    1.2767    0.7107 C   0  0  0  0  0  0  0  0  0  0  0  0
    0.6674    0.9553    0.9028 C   0  0  0  0  0  0  0  0  0  0  0  0
    1.1716   -0.2900    0.4929 C   0  0  0  0  0  0  0  0  0  0  0  0
  1  2  1  0
  2  3  4  0
  3  4  4  0
  4  5  4  0
  5  6  4  0
  6  7  4  0
  7  2  4  0
M  END
$$$$

     RDKit          3D

  7  7  0  0  0  0  0  0  0  0999 V2000
    0.9045   -0.8721    2.6275 C   0  0  0  0  0  0  0  0  0  0  0  0
    0.3628   -0.4802    1.2774 C   0  0  0  0  0  0  0  0  0  0  0  0
   -1.0158   -0.2445    1.1436 C   0  0  0  0  0  0  0  0  0  0  0  0
   -1.5590    0.1451   -0.0873 C   0  0  0  0  0  0  0  0  0  0  0  0
   -0.7218    0.2947   -1.1979 C   0  0  0  0  0  0  0  0  0  0  0  0
    0.6459    0.0443   -1.0849 C   0  0  0  0  0  0  0  0  0  0  0  0
    1.2011   -0.3596    0.1405 C   0  0  0  0  0  0  0  0  0  0  0  0
  1  2  1  0
  2  3  4  0
  3  4  4  0
  4  5  4  0
  5  6  4  0
  6  7  4  0
  7  2  4  0
M  END
$$$$

     RDKit          3D

  9  9  0  0  0  0  0  0  0  0999 V2000
   -1.3229   -1.5153    2.0217 F   0  0  0  0  0  0  0  0  0  0  0  0
   -0.6810   -0.7755    1.0817 C   0  0  0  0  0  0  0  0  0  0  0  0
    0.7158   -0.7842    1.0475 C   0  0  0  0  0  0  0  0  0  0  0  0
    1.4125   -0.0120    0.1044 C   0  0  0  0  0  0  0  0  0  0  0  0
    0.6863    0.7729   -0.8097 C   0  0  0  0  0  0  0  0  0  0  0  0
    1.3305    1.5028   -1.7562 F   0  0  0  0  0  0  0  0  0  0  0  0
   -0.7125    0.7832   -0.7773 C   0  0  0  0  0  0  0  0  0  0  0  0
   -1.3898    1.5206   -1.6945 F   0  0  0  0  0  0  0  0  0  0  0  0
   -1.4078    0.0125    0.1720 C   0  0  0  0  0  0  0  0  0  0  0  0
  1  2  1  0
  2  3  4  0
  3  4  4  0
  4  5  4  0
  5  6  1  0
  5  7  4  0
  7  8  1  0
  7  9  4  0
  9  2  4  0
M  END
$$$$

     RDKit          3D

  9  9  0  0  0  0  0  0  0  0999 V2000
   -1.3229   -1.5153    2.0217 F   0  0  0  0  0  0  0  0  0  0  0  0
   -0.6810   -0.7755    1.0817 C   0  0  0  0  0  0  0  0  0  0  0  0
    0.7158   -0.7842    1.0475 C   0  0  0  0  0  0  0  0  0  0  0  0
    1.4125   -0.0120    0.1044 C   0  0  0  0  0  0  0  0  0  0  0  0
    0.6863    0.7729   -0.8097 C   0  0  0  0  0  0  0  0  0  0  0  0
    1.3305    1.5028   -1.7562 F   0  0  0  0  0  0  0  0  0  0  0  0
   -0.7125    0.7832   -0.7773 C   0  0  0  0  0  0  0  0  0  0  0  0
   -1.3898    1.5206   -1.6945 F   0  0  0  0  0  0  0  0  0  0  0  0
   -1.4078    0.0125    0.1720 C   0  0  0  0  0  0  0  0  0  0  0  0
  1  2  1  0
  2  3  4  0
  3  4  4  0
  4  5  4  0
  5  6  1  0
  5  7  4  0
  7  8  1  0
  7  9  4  0
  9  2  4  0
M  END
$$$$

     RDKit          3D

  9  9  0  0  0  0  0  0  0  0999 V2000
    1.4382    0.9442   -2.0436 F   0  0  0  0  0  0  0  0  0  0  0  0
    0.7415    0.4959   -0.9681 C   0  0  0  0  0  0  0  0  0  0  0  0
   -0.6472    0.6491   -0.9468 C   0  0  0  0  0  0  0  0  0  0  0  0
   -1.4032    0.1661    0.1332 C   0  0  0  0  0  0  0  0  0  0  0  0
   -0.7452   -0.4790    1.1962 C   0  0  0  0  0  0  0  0  0  0  0  0
   -1.4452   -0.9309    2.2682 F   0  0  0  0  0  0  0  0  0  0  0  0
    0.6453   -0.6335    1.1769 C   0  0  0  0  0  0  0  0  0  0  0  0
    1.2587   -1.2364    2.2277 F   0  0  0  0  0  0  0  0  0  0  0  0
    1.4007   -0.1441    0.0962 C   0  0  0  0  0  0  0  0  0  0  0  0
  1  2  1  0
  2  3  4  0
  3  4  4  0
  4  5  4  0
  5  6  1  0
  5  7  4  0
  7  8  1  0
  7  9  4  0
  9  2  4  0
M  END
$$$$

     RDKit          3D

  9  9  0  0  0  0  0  0  0  0999 V2000
    1.4382    0.9442   -2.0436 F   0  0  0  0  0  0  0  0  0  0  0  0
    0.7415    0.4959   -0.9681 C   0  0  0  0  0  0  0  0  0  0  0  0
   -0.6472    0.6491   -0.9468 C   0  0  0  0  0  0  0  0  0  0  0  0
   -1.4032    0.1661    0.1332 C   0  0  0  0  0  0  0  0  0  0  0  0
   -0.7452   -0.4790    1.1962 C   0  0  0  0  0  0  0  0  0  0  0  0
   -1.4452   -0.9309    2.2682 F   0  0  0  0  0  0  0  0  0  0  0  0
    0.6453   -0.6335    1.1769 C   0  0  0  0  0  0  0  0  0  0  0  0
    1.2587   -1.2364    2.2277 F   0  0  0  0  0  0  0  0  0  0  0  0
    1.4007   -0.1441    0.0962 C   0  0  0  0  0  0  0  0  0  0  0  0
  1  2  1  0
  2  3  4  0
  3  4  4  0
  4  5  4  0
  5  6  1  0
  5  7  4  0
  7  8  1  0
  7  9  4  0
  9  2  4  0
M  END
$$$$

     RDKit          3D

  9  9  0  0  0  0  0  0  0  0999 V2000
   -1.3717   -1.1832    2.0967 F   0  0  0  0  0  0  0  0  0  0  0  0
   -0.7050   -0.6045    1.0654 C   0  0  0  0  0  0  0  0  0  0  0  0
    0.6911   -0.5590    1.0995 C   0  0  0  0  0  0  0  0  0  0  0  0
    1.4118    0.0559    0.0633 C   0  0  0  0  0  0  0  0  0  0  0  0
    0.7104    0.6292   -1.0129 C   0  0  0  0  0  0  0  0  0  0  0  0
    1.3779    1.2528   -2.0175 F   0  0  0  0  0  0  0  0  0  0  0  0
   -0.6877    0.5864   -1.0483 C   0  0  0  0  0  0  0  0  0  0  0  0
   -1.3400    1.1355   -2.1051 F   0  0  0  0  0  0  0  0  0  0  0  0
   -1.4069   -0.0352   -0.0117 C   0  0  0  0  0  0  0  0  0  0  0  0
  1  2  1  0
  2  3  4  0
  3  4  4  0
  4  5  4  0
  5  6  1  0
  5  7  4  0
  7  8  1  0
  7  9  4  0
  9  2  4  0
M  END
$$$$

     RDKit          3D

  9  9  0  0  0  0  0  0  0  0999 V2000
   -1.3717   -1.1832    2.0967 F   0  0  0  0  0  0  0  0  0  0  0  0
   -0.7050   -0.6045    1.0654 C   0  0  0  0  0  0  0  0  0  0  0  0
    0.6911   -0.5590    1.0995 C   0  0  0  0  0  0  0  0  0  0  0  0
    1.4118    0.0559    0.0633 C   0  0  0  0  0  0  0  0  0  0  0  0
    0.7104    0.6292   -1.0129 C   0  0  0  0  0  0  0  0  0  0  0  0
    1.3779    1.2528   -2.0175 F   0  0  0  0  0  0  0  0  0  0  0  0
   -0.6877    0.5864   -1.0483 C   0  0  0  0  0  0  0  0  0  0  0  0
   -1.3400    1.1355   -2.1051 F   0  0  0  0  0  0  0  0  0  0  0  0
   -1.4069   -0.0352   -0.0117 C   0  0  0  0  0  0  0  0  0  0  0  0
  1  2  1  0
  2  3  4  0
  3  4  4  0
  4  5  4  0
  5  6  1  0
  5  7  4  0
  7  8  1  0
  7  9  4  0
  9  2  4  0
M  END
$$$$

     RDKit          3D

  9  9  0  0  0  0  0  0  0  0999 V2000
    1.2607   -1.8479   -1.5181 F   0  0  0  0  0  0  0  0  0  0  0  0
    0.6499   -0.9248   -0.7321 C   0  0  0  0  0  0  0  0  0  0  0  0
   -0.7450   -0.8433   -0.7388 C   0  0  0  0  0  0  0  0  0  0  0  0
   -1.4110    0.0809    0.0818 C   0  0  0  0  0  0  0  0  0  0  0  0
   -0.6560    0.9262    0.9151 C   0  0  0  0  0  0  0  0  0  0  0  0
   -1.2719    1.8130    1.7383 F   0  0  0  0  0  0  0  0  0  0  0  0
    0.7408    0.8452    0.9247 C   0  0  0  0  0  0  0  0  0  0  0  0
    1.4466    1.6818    1.7283 F   0  0  0  0  0  0  0  0  0  0  0  0
    1.4057   -0.0777    0.0975 C   0  0  0  0  0  0  0  0  0  0  0  0
  1  2  1  0
  2  3  4  0
  3  4  4  0
  4  5  4  0
  5  6  1  0
  5  7  4  0
  7  8  1  0
  7  9  4  0
  9  2  4  0
M  END
$$$$

     RDKit          3D

  9  9  0  0  0  0  0  0  0  0999 V2000
    1.2607   -1.8479   -1.5181 F   0  0  0  0  0  0  0  0  0  0  0  0
    0.6499   -0.9248   -0.7321 C   0  0  0  0  0  0  0  0  0  0  0  0
   -0.7450   -0.8433   -0.7388 C   0  0  0  0  0  0  0  0  0  0  0  0
   -1.4110    0.0809    0.0818 C   0  0  0  0  0  0  0  0  0  0  0  0
   -0.6560    0.9262    0.9151 C   0  0  0  0  0  0  0  0  0  0  0  0
   -1.2719    1.8130    1.7383 F   0  0  0  0  0  0  0  0  0  0  0  0
    0.7408    0.8452    0.9247 C   0  0  0  0  0  0  0  0  0  0  0  0
    1.4466    1.6818    1.7283 F   0  0  0  0  0  0  0  0  0  0  0  0
    1.4057   -0.0777    0.0975 C   0  0  0  0  0  0  0  0  0  0  0  0
  1  2  1  0
  2  3  4  0
  3  4  4  0
  4  5  4  0
  5  6  1  0
  5  7  4  0
  7  8  1  0
  7  9  4  0
  9  2  4  0
M  END
$$$$

     RDKit          3D

  9  9  0  0  0  0  0  0  0  0999 V2000
   -1.2830   -1.4441   -2.0266 F   0  0  0  0  0  0  0  0  0  0  0  0
   -0.6623   -0.7425   -1.0440 C   0  0  0  0  0  0  0  0  0  0  0  0
    0.7279   -0.8217   -0.9270 C   0  0  0  0  0  0  0  0  0  0  0  0
    1.4047   -0.0905    0.0622 C   0  0  0  0  0  0  0  0  0  0  0  0
    0.6652    0.7251    0.9379 C   0  0  0  0  0  0  0  0  0  0  0  0
    1.2874    1.4166    1.9271 F   0  0  0  0  0  0  0  0  0  0  0  0
   -0.7268    0.8060    0.8226 C   0  0  0  0  0  0  0  0  0  0  0  0
   -1.4200    1.5716    1.7040 F   0  0  0  0  0  0  0  0  0  0  0  0
   -1.4018    0.0763   -0.1726 C   0  0  0  0  0  0  0  0  0  0  0  0
  1  2  1  0
  2  3  4  0
  3  4  4  0
  4  5  4  0
  5  6  1  0
  5  7  4  0
  7  8  1  0
  7  9  4  0
  9  2  4  0
M  END
$$$$

     RDKit          3D

  9  9  0  0  0  0  0  0  0  0999 V2000
   -1.2830   -1.4441   -2.0266 F   0  0  0  0  0  0  0  0  0  0  0  0
   -0.6623   -0.7425   -1.0440 C   0  0  0  0  0  0  0  0  0  0  0  0
    0.7279   -0.8217   -0.9270 C   0  0  0  0  0  0  0  0  0  0  0  0
    1.4047   -0.0905    0.0622 C   0  0  0  0  0  0  0  0  0  0  0  0
    0.6652    0.7251    0.9379 C   0  0  0  0  0  0  0  0  0  0  0  0
    1.2874    1.4166    1.9271 F   0  0  0  0  0  0  0  0  0  0  0  0
   -0.7268    0.8060    0.8226 C   0  0  0  0  0  0  0  0  0  0  0  0
   -1.4200    1.5716    1.7040 F   0  0  0  0  0  0  0  0  0  0  0  0
   -1.4018    0.0763   -0.1726 C   0  0  0  0  0  0  0  0  0  0  0  0
  1  2  1  0
  2  3  4  0
  3  4  4  0
  4  5  4  0
  5  6  1  0
  5  7  4  0
  7  8  1  0
  7  9  4  0
  9  2  4  0
M  END
$$$$

     RDKit          3D

  9  9  0  0  0  0  0  0  0  0999 V2000
   -1.1910   -1.3696   -2.0590 F   0  0  0  0  0  0  0  0  0  0  0  0
   -0.6132   -0.6792   -1.0429 C   0  0  0  0  0  0  0  0  0  0  0  0
    0.7770   -0.7098   -0.9049 C   0  0  0  0  0  0  0  0  0  0  0  0
    1.4050   -0.0311    0.1511 C   0  0  0  0  0  0  0  0  0  0  0  0
    0.6193    0.6985    1.0614 C   0  0  0  0  0  0  0  0  0  0  0  0
    1.2024    1.4123    2.0584 F   0  0  0  0  0  0  0  0  0  0  0  0
   -0.7729    0.7306    0.9253 C   0  0  0  0  0  0  0  0  0  0  0  0
   -1.5058    1.4691    1.7978 F   0  0  0  0  0  0  0  0  0  0  0  0
   -1.4014    0.0363   -0.1243 C   0  0  0  0  0  0  0  0  0  0  0  0
  1  2  1  0
  2  3  4  0
  3  4  4  0
  4  5  4  0
  5  6  1  0
  5  7  4  0
  7  8  1  0
  7  9  4  0
  9  2  4  0
M  END
$$$$

     RDKit          3D

  9  9  0  0  0  0  0  0  0  0999 V2000
   -1.1910   -1.3696   -2.0590 F   0  0  0  0  0  0  0  0  0  0  0  0
   -0.6132   -0.6792   -1.0429 C   0  0  0  0  0  0  0  0  0  0  0  0
    0.7770   -0.7098   -0.9049 C   0  0  0  0  0  0  0  0  0  0  0  0
    1.4050   -0.0311    0.1511 C   0  0  0  0  0  0  0  0  0  0  0  0
    0.6193    0.6985    1.0614 C   0  0  0  0  0  0  0  0  0  0  0  0
    1.2024    1.4123    2.0584 F   0  0  0  0  0  0  0  0  0  0  0  0
   -0.7729    0.7306    0.9253 C   0  0  0  0  0  0  0  0  0  0  0  0
   -1.5058    1.4691    1.7978 F   0  0  0  0  0  0  0  0  0  0  0  0
   -1.4014    0.0363   -0.1243 C   0  0  0  0  0  0  0  0  0  0  0  0
  1  2  1  0
  2  3  4  0
  3  4  4  0
  4  5  4  0
  5  6  1  0
  5  7  4  0
  7  8  1  0
  7  9  4  0
  9  2  4  0
M  END
$$$$

     RDKit          3D

  9  9  0  0  0  0  0  0  0  0999 V2000
    1.0674    2.4298   -0.8215 F   0  0  0  0  0  0  0  0  0  0  0  0
    0.5517    1.2293   -0.4530 C   0  0  0  0  0  0  0  0  0  0  0  0
   -0.8357    1.0644   -0.4307 C   0  0  0  0  0  0  0  0  0  0  0  0
   -1.4024   -0.1746   -0.0929 C   0  0  0  0  0  0  0  0  0  0  0  0
   -0.5566   -1.2484    0.2386 C   0  0  0  0  0  0  0  0  0  0  0  0
   -1.0761   -2.4436    0.6195 F   0  0  0  0  0  0  0  0  0  0  0  0
    0.8329   -1.0857    0.2169 C   0  0  0  0  0  0  0  0  0  0  0  0
    1.6271   -2.1313    0.5628 F   0  0  0  0  0  0  0  0  0  0  0  0
    1.3987    0.1551   -0.1275 C   0  0  0  0  0  0  0  0  0  0  0  0
  1  2  1  0
  2  3  4  0
  3  4  4  0
  4  5  4  0
  5  6  1  0
  5  7  4  0
  7  8  1  0
  7  9  4  0
  9  2  4  0
M  END
$$$$

     RDKit          3D

  9  9  0  0  0  0  0  0  0  0999 V2000
    1.0674    2.4298   -0.8215 F   0  0  0  0  0  0  0  0  0  0  0  0
    0.5517    1.2293   -0.4530 C   0  0  0  0  0  0  0  0  0  0  0  0
   -0.8357    1.0644   -0.4307 C   0  0  0  0  0  0  0  0  0  0  0  0
   -1.4024   -0.1746   -0.0929 C   0  0  0  0  0  0  0  0  0  0  0  0
   -0.5566   -1.2484    0.2386 C   0  0  0  0  0  0  0  0  0  0  0  0
   -1.0761   -2.4436    0.6195 F   0  0  0  0  0  0  0  0  0  0  0  0
    0.8329   -1.0857    0.2169 C   0  0  0  0  0  0  0  0  0  0  0  0
    1.6271   -2.1313    0.5628 F   0  0  0  0  0  0  0  0  0  0  0  0
    1.3987    0.1551   -0.1275 C   0  0  0  0  0  0  0  0  0  0  0  0
  1  2  1  0
  2  3  4  0
  3  4  4  0
  4  5  4  0
  5  6  1  0
  5  7  4  0
  7  8  1  0
  7  9  4  0
  9  2  4  0
M  END
$$$$

     RDKit          3D

  9  9  0  0  0  0  0  0  0  0999 V2000
   -1.3196   -0.4959   -2.3302 F   0  0  0  0  0  0  0  0  0  0  0  0
   -0.6804   -0.2338   -1.1615 C   0  0  0  0  0  0  0  0  0  0  0  0
    0.7114   -0.1109   -1.1610 C   0  0  0  0  0  0  0  0  0  0  0  0
    1.4068    0.1359    0.0334 C   0  0  0  0  0  0  0  0  0  0  0  0
    0.6842    0.2593    1.2341 C   0  0  0  0  0  0  0  0  0  0  0  0
    1.3249    0.5330    2.3995 F   0  0  0  0  0  0  0  0  0  0  0  0
   -0.7096    0.1366    1.2360 C   0  0  0  0  0  0  0  0  0  0  0  0
   -1.3859    0.2968    2.4025 F   0  0  0  0  0  0  0  0  0  0  0  0
   -1.4032   -0.1157    0.0386 C   0  0  0  0  0  0  0  0  0  0  0  0
  1  2  1  0
  2  3  4  0
  3  4  4  0
  4  5  4  0
  5  6  1  0
  5  7  4  0
  7  8  1  0
  7  9  4  0
  9  2  4  0
M  END
$$$$

     RDKit          3D

  9  9  0  0  0  0  0  0  0  0999 V2000
   -1.3196   -0.4959   -2.3302 F   0  0  0  0  0  0  0  0  0  0  0  0
   -0.6804   -0.2338   -1.1615 C   0  0  0  0  0  0  0  0  0  0  0  0
    0.7114   -0.1109   -1.1610 C   0  0  0  0  0  0  0  0  0  0  0  0
    1.4068    0.1359    0.0334 C   0  0  0  0  0  0  0  0  0  0  0  0
    0.6842    0.2593    1.2341 C   0  0  0  0  0  0  0  0  0  0  0  0
    1.3249    0.5330    2.3995 F   0  0  0  0  0  0  0  0  0  0  0  0
   -0.7096    0.1366    1.2360 C   0  0  0  0  0  0  0  0  0  0  0  0
   -1.3859    0.2968    2.4025 F   0  0  0  0  0  0  0  0  0  0  0  0
   -1.4032   -0.1157    0.0386 C   0  0  0  0  0  0  0  0  0  0  0  0
  1  2  1  0
  2  3  4  0
  3  4  4  0
  4  5  4  0
  5  6  1  0
  5  7  4  0
  7  8  1  0
  7  9  4  0
  9  2  4  0
M  END
$$$$

     RDKit          3D

  9  9  0  0  0  0  0  0  0  0999 V2000
    1.4246    2.2542   -0.6732 F   0  0  0  0  0  0  0  0  0  0  0  0
    0.7328    1.1378   -0.3298 C   0  0  0  0  0  0  0  0  0  0  0  0
   -0.6596    1.2042   -0.2329 C   0  0  0  0  0  0  0  0  0  0  0  0
   -1.4083    0.0621    0.0917 C   0  0  0  0  0  0  0  0  0  0  0  0
   -0.7386   -1.1501    0.3379 C   0  0  0  0  0  0  0  0  0  0  0  0
   -1.4308   -2.2571    0.7105 F   0  0  0  0  0  0  0  0  0  0  0  0
    0.6555   -1.2190    0.2414 C   0  0  0  0  0  0  0  0  0  0  0  0
    1.2801   -2.3930    0.5163 F   0  0  0  0  0  0  0  0  0  0  0  0
    1.4025   -0.0770   -0.0999 C   0  0  0  0  0  0  0  0  0  0  0  0
  1  2  1  0
  2  3  4  0
  3  4  4  0
  4  5  4  0
  5  6  1  0
  5  7  4  0
  7  8  1  0
  7  9  4  0
  9  2  4  0
M  END
$$$$

     RDKit          3D

  9  9  0  0  0  0  0  0  0  0999 V2000
    1.4246    2.2542   -0.6732 F   0  0  0  0  0  0  0  0  0  0  0  0
    0.7328    1.1378   -0.3298 C   0  0  0  0  0  0  0  0  0  0  0  0
   -0.6596    1.2042   -0.2329 C   0  0  0  0  0  0  0  0  0  0  0  0
   -1.4083    0.0621    0.0917 C   0  0  0  0  0  0  0  0  0  0  0  0
   -0.7386   -1.1501    0.3379 C   0  0  0  0  0  0  0  0  0  0  0  0
   -1.4308   -2.2571    0.7105 F   0  0  0  0  0  0  0  0  0  0  0  0
    0.6555   -1.2190    0.2414 C   0  0  0  0  0  0  0  0  0  0  0  0
    1.2801   -2.3930    0.5163 F   0  0  0  0  0  0  0  0  0  0  0  0
    1.4025   -0.0770   -0.0999 C   0  0  0  0  0  0  0  0  0  0  0  0
  1  2  1  0
  2  3  4  0
  3  4  4  0
  4  5  4  0
  5  6  1  0
  5  7  4  0
  7  8  1  0
  7  9  4  0
  9  2  4  0
M  END
$$$$

     RDKit          3D

  9  9  0  0  0  0  0  0  0  0999 V2000
   -1.6100    1.6910   -1.4735 F   0  0  0  0  0  0  0  0  0  0  0  0
   -0.8241    0.8372   -0.7689 C   0  0  0  0  0  0  0  0  0  0  0  0
   -0.5757    1.1001    0.5808 C   0  0  0  0  0  0  0  0  0  0  0  0
    0.2640    0.2604    1.3292 C   0  0  0  0  0  0  0  0  0  0  0  0
    0.8432   -0.8609    0.7083 C   0  0  0  0  0  0  0  0  0  0  0  0
    1.6178   -1.7199    1.4193 F   0  0  0  0  0  0  0  0  0  0  0  0
    0.5960   -1.1261   -0.6431 C   0  0  0  0  0  0  0  0  0  0  0  0
    1.1490   -2.2274   -1.2133 F   0  0  0  0  0  0  0  0  0  0  0  0
   -0.2411   -0.2801   -1.3927 C   0  0  0  0  0  0  0  0  0  0  0  0
  1  2  1  0
  2  3  4  0
  3  4  4  0
  4  5  4  0
  5  6  1  0
  5  7  4  0
  7  8  1  0
  7  9  4  0
  9  2  4  0
M  END
$$$$

     RDKit          3D

  9  9  0  0  0  0  0  0  0  0999 V2000
   -1.6100    1.6910   -1.4735 F   0  0  0  0  0  0  0  0  0  0  0  0
   -0.8241    0.8372   -0.7689 C   0  0  0  0  0  0  0  0  0  0  0  0
   -0.5757    1.1001    0.5808 C   0  0  0  0  0  0  0  0  0  0  0  0
    0.2640    0.2604    1.3292 C   0  0  0  0  0  0  0  0  0  0  0  0
    0.8432   -0.8609    0.7083 C   0  0  0  0  0  0  0  0  0  0  0  0
    1.6178   -1.7199    1.4193 F   0  0  0  0  0  0  0  0  0  0  0  0
    0.5960   -1.1261   -0.6431 C   0  0  0  0  0  0  0  0  0  0  0  0
    1.1490   -2.2274   -1.2133 F   0  0  0  0  0  0  0  0  0  0  0  0
   -0.2411   -0.2801   -1.3927 C   0  0  0  0  0  0  0  0  0  0  0  0
  1  2  1  0
  2  3  4  0
  3  4  4  0
  4  5  4  0
  5  6  1  0
  5  7  4  0
  7  8  1  0
  7  9  4  0
  9  2  4  0
M  END
$$$$

     RDKit          3D

  9  9  0  0  0  0  0  0  0  0999 V2000
    1.4964   -1.9491    1.1924 F   0  0  0  0  0  0  0  0  0  0  0  0
    0.7676   -0.9719    0.5952 C   0  0  0  0  0  0  0  0  0  0  0  0
   -0.6261   -1.0722    0.5885 C   0  0  0  0  0  0  0  0  0  0  0  0
   -1.4101   -0.0939   -0.0437 C   0  0  0  0  0  0  0  0  0  0  0  0
   -0.7749    0.9916   -0.6738 C   0  0  0  0  0  0  0  0  0  0  0  0
   -1.5045    1.9404   -1.3149 F   0  0  0  0  0  0  0  0  0  0  0  0
    0.6206    1.0932   -0.6698 C   0  0  0  0  0  0  0  0  0  0  0  0
    1.2083    2.1579   -1.2737 F   0  0  0  0  0  0  0  0  0  0  0  0
    1.4033    0.1147   -0.0310 C   0  0  0  0  0  0  0  0  0  0  0  0
  1  2  1  0
  2  3  4  0
  3  4  4  0
  4  5  4  0
  5  6  1  0
  5  7  4  0
  7  8  1  0
  7  9  4  0
  9  2  4  0
M  END
$$$$

     RDKit          3D

  9  9  0  0  0  0  0  0  0  0999 V2000
    1.4964   -1.9491    1.1924 F   0  0  0  0  0  0  0  0  0  0  0  0
    0.7676   -0.9719    0.5952 C   0  0  0  0  0  0  0  0  0  0  0  0
   -0.6261   -1.0722    0.5885 C   0  0  0  0  0  0  0  0  0  0  0  0
   -1.4101   -0.0939   -0.0437 C   0  0  0  0  0  0  0  0  0  0  0  0
   -0.7749    0.9916   -0.6738 C   0  0  0  0  0  0  0  0  0  0  0  0
   -1.5045    1.9404   -1.3149 F   0  0  0  0  0  0  0  0  0  0  0  0
    0.6206    1.0932   -0.6698 C   0  0  0  0  0  0  0  0  0  0  0  0
    1.2083    2.1579   -1.2737 F   0  0  0  0  0  0  0  0  0  0  0  0
    1.4033    0.1147   -0.0310 C   0  0  0  0  0  0  0  0  0  0  0  0
  1  2  1  0
  2  3  4  0
  3  4  4  0
  4  5  4  0
  5  6  1  0
  5  7  4  0
  7  8  1  0
  7  9  4  0
  9  2  4  0
M  END
$$$$

     RDKit          3D

  9  9  0  0  0  0  0  0  0  0999 V2000
   -1.7443   -1.7415    1.0021 F   0  0  0  0  0  0  0  0  0  0  0  0
   -0.8923   -0.8695    0.4048 C   0  0  0  0  0  0  0  0  0  0  0  0
    0.4847   -1.0655    0.5386 C   0  0  0  0  0  0  0  0  0  0  0  0
    1.3942   -0.1926   -0.0795 C   0  0  0  0  0  0  0  0  0  0  0  0
    0.9023    0.8869   -0.8356 C   0  0  0  0  0  0  0  0  0  0  0  0
    1.7564    1.7374   -1.4608 F   0  0  0  0  0  0  0  0  0  0  0  0
   -0.4762    1.0841   -0.9723 C   0  0  0  0  0  0  0  0  0  0  0  0
   -0.9244    2.1476   -1.6877 F   0  0  0  0  0  0  0  0  0  0  0  0
   -1.3851    0.2053   -0.3558 C   0  0  0  0  0  0  0  0  0  0  0  0
  1  2  1  0
  2  3  4  0
  3  4  4  0
  4  5  4  0
  5  6  1  0
  5  7  4  0
  7  8  1  0
  7  9  4  0
  9  2  4  0
M  END
$$$$

     RDKit          3D

  9  9  0  0  0  0  0  0  0  0999 V2000
   -1.7443   -1.7415    1.0021 F   0  0  0  0  0  0  0  0  0  0  0  0
   -0.8923   -0.8695    0.4048 C   0  0  0  0  0  0  0  0  0  0  0  0
    0.4847   -1.0655    0.5386 C   0  0  0  0  0  0  0  0  0  0  0  0
    1.3942   -0.1926   -0.0795 C   0  0  0  0  0  0  0  0  0  0  0  0
    0.9023    0.8869   -0.8356 C   0  0  0  0  0  0  0  0  0  0  0  0
    1.7564    1.7374   -1.4608 F   0  0  0  0  0  0  0  0  0  0  0  0
   -0.4762    1.0841   -0.9723 C   0  0  0  0  0  0  0  0  0  0  0  0
   -0.9244    2.1476   -1.6877 F   0  0  0  0  0  0  0  0  0  0  0  0
   -1.3851    0.2053   -0.3558 C   0  0  0  0  0  0  0  0  0  0  0  0
  1  2  1  0
  2  3  4  0
  3  4  4  0
  4  5  4  0
  5  6  1  0
  5  7  4  0
  7  8  1  0
  7  9  4  0
  9  2  4  0
M  END
$$$$

     RDKit          3D

  9  9  0  0  0  0  0  0  0  0999 V2000
    0.8351   -1.5155    2.2508 F   0  0  0  0  0  0  0  0  0  0  0  0
    0.4312   -0.7549    1.2014 C   0  0  0  0  0  0  0  0  0  0  0  0
   -0.8374   -0.9686    0.6558 C   0  0  0  0  0  0  0  0  0  0  0  0
   -1.2808   -0.2115   -0.4402 C   0  0  0  0  0  0  0  0  0  0  0  0
   -0.4319    0.7699   -0.9837 C   0  0  0  0  0  0  0  0  0  0  0  0
   -0.8247    1.5053   -2.0553 F   0  0  0  0  0  0  0  0  0  0  0  0
    0.8394    0.9844   -0.4401 C   0  0  0  0  0  0  0  0  0  0  0  0
    1.6295    1.9542   -0.9683 F   0  0  0  0  0  0  0  0  0  0  0  0
    1.2829    0.2212    0.6551 C   0  0  0  0  0  0  0  0  0  0  0  0
  1  2  1  0
  2  3  4  0
  3  4  4  0
  4  5  4  0
  5  6  1  0
  5  7  4  0
  7  8  1  0
  7  9  4  0
  9  2  4  0
M  END
$$$$

     RDKit          3D

  9  9  0  0  0  0  0  0  0  0999 V2000
    0.8351   -1.5155    2.2508 F   0  0  0  0  0  0  0  0  0  0  0  0
    0.4312   -0.7549    1.2014 C   0  0  0  0  0  0  0  0  0  0  0  0
   -0.8374   -0.9686    0.6558 C   0  0  0  0  0  0  0  0  0  0  0  0
   -1.2808   -0.2115   -0.4402 C   0  0  0  0  0  0  0  0  0  0  0  0
   -0.4319    0.7699   -0.9837 C   0  0  0  0  0  0  0  0  0  0  0  0
   -0.8247    1.5053   -2.0553 F   0  0  0  0  0  0  0  0  0  0  0  0
    0.8394    0.9844   -0.4401 C   0  0  0  0  0  0  0  0  0  0  0  0
    1.6295    1.9542   -0.9683 F   0  0  0  0  0  0  0  0  0  0  0  0
    1.2829    0.2212    0.6551 C   0  0  0  0  0  0  0  0  0  0  0  0
  1  2  1  0
  2  3  4  0
  3  4  4  0
  4  5  4  0
  5  6  1  0
  5  7  4  0
  7  8  1  0
  7  9  4  0
  9  2  4  0
M  END
$$$$

     RDKit          3D

  9  9  0  0  0  0  0  0  0  0999 V2000
   -1.4099    2.1871   -0.9519 F   0  0  0  0  0  0  0  0  0  0  0  0
   -0.7243    1.0927   -0.5332 C   0  0  0  0  0  0  0  0  0  0  0  0
    0.6727    1.1229   -0.5401 C   0  0  0  0  0  0  0  0  0  0  0  0
    1.4132    0.0241   -0.0769 C   0  0  0  0  0  0  0  0  0  0  0  0
    0.7322   -1.1178    0.3822 C   0  0  0  0  0  0  0  0  0  0  0  0
    1.4210   -2.2153    0.7878 F   0  0  0  0  0  0  0  0  0  0  0  0
   -0.6666   -1.1503    0.3902 C   0  0  0  0  0  0  0  0  0  0  0  0
   -1.3000   -2.2729    0.8173 F   0  0  0  0  0  0  0  0  0  0  0  0
   -1.4066   -0.0458   -0.0690 C   0  0  0  0  0  0  0  0  0  0  0  0
  1  2  1  0
  2  3  4  0
  3  4  4  0
  4  5  4  0
  5  6  1  0
  5  7  4  0
  7  8  1  0
  7  9  4  0
  9  2  4  0
M  END
$$$$

     RDKit          3D

  9  9  0  0  0  0  0  0  0  0999 V2000
   -1.4099    2.1871   -0.9519 F   0  0  0  0  0  0  0  0  0  0  0  0
   -0.7243    1.0927   -0.5332 C   0  0  0  0  0  0  0  0  0  0  0  0
    0.6727    1.1229   -0.5401 C   0  0  0  0  0  0  0  0  0  0  0  0
    1.4132    0.0241   -0.0769 C   0  0  0  0  0  0  0  0  0  0  0  0
    0.7322   -1.1178    0.3822 C   0  0  0  0  0  0  0  0  0  0  0  0
    1.4210   -2.2153    0.7878 F   0  0  0  0  0  0  0  0  0  0  0  0
   -0.6666   -1.1503    0.3902 C   0  0  0  0  0  0  0  0  0  0  0  0
   -1.3000   -2.2729    0.8173 F   0  0  0  0  0  0  0  0  0  0  0  0
   -1.4066   -0.0458   -0.0690 C   0  0  0  0  0  0  0  0  0  0  0  0
  1  2  1  0
  2  3  4  0
  3  4  4  0
  4  5  4  0
  5  6  1  0
  5  7  4  0
  7  8  1  0
  7  9  4  0
  9  2  4  0
M  END
$$$$
