
     RDKit          3D

  6  6  0  0  0  0  0  0  0  0999 V2000
   -1.3887    1.6395    1.1879 N   0  0  0  0  0  0  0  0  0  0  0  0
   -0.0573    1.6542    1.1460 N   0  0  0  0  0  0  0  0  0  0  0  0
    0.6140    0.9448    0.2023 C   0  0  0  0  0  0  0  0  0  0  0  0
   -0.1004    0.2498   -0.7179 N   0  0  0  0  0  0  0  0  0  0  0  0
   -1.4314    0.2349   -0.6761 N   0  0  0  0  0  0  0  0  0  0  0  0
   -2.1025    0.9152    0.2875 C   0  0  0  0  0  0  0  0  0  0  0  0
  1  2  4  0
  2  3  4  0
  3  4  4  0
  4  5  4  0
  5  6  4  0
  6  1  4  0
M  END
$$$$

     RDKit          3D

  6  6  0  0  0  0  0  0  0  0999 V2000
    1.6857    0.6465   -0.5103 N   0  0  0  0  0  0  0  0  0  0  0  0
    0.3990    0.9745   -0.6145 N   0  0  0  0  0  0  0  0  0  0  0  0
   -0.5371    0.3590    0.1528 C   0  0  0  0  0  0  0  0  0  0  0  0
   -0.1317   -0.5822    1.0420 N   0  0  0  0  0  0  0  0  0  0  0  0
    1.1550   -0.9104    1.1463 N   0  0  0  0  0  0  0  0  0  0  0  0
    2.0915   -0.2959    0.3783 C   0  0  0  0  0  0  0  0  0  0  0  0
  1  2  4  0
  2  3  4  0
  3  4  4  0
  4  5  4  0
  5  6  4  0
  6  1  4  0
M  END
$$$$

     RDKit          3D

  6  6  0  0  0  0  0  0  0  0999 V2000
    1.7177    0.7859    0.2616 N   0  0  0  0  0  0  0  0  0  0  0  0
    0.4519    1.1903    0.1711 N   0  0  0  0  0  0  0  0  0  0  0  0
   -0.5095    0.3566   -0.3027 C   0  0  0  0  0  0  0  0  0  0  0  0
   -0.1501   -0.8896   -0.7009 N   0  0  0  0  0  0  0  0  0  0  0  0
    1.1157   -1.2942   -0.6104 N   0  0  0  0  0  0  0  0  0  0  0  0
    2.0775   -0.4612   -0.1355 C   0  0  0  0  0  0  0  0  0  0  0  0
  1  2  4  0
  2  3  4  0
  3  4  4  0
  4  5  4  0
  5  6  4  0
  6  1  4  0
M  END
$$$$

     RDKit          3D

  6  6  0  0  0  0  0  0  0  0999 V2000
    1.4263    0.4708    0.6747 N   0  0  0  0  0  0  0  0  0  0  0  0
    0.0993    0.4041    0.7652 N   0  0  0  0  0  0  0  0  0  0  0  0
   -0.6870    0.8340   -0.2533 C   0  0  0  0  0  0  0  0  0  0  0  0
   -0.0937    1.3668   -1.3525 N   0  0  0  0  0  0  0  0  0  0  0  0
    1.2336    1.4338   -1.4431 N   0  0  0  0  0  0  0  0  0  0  0  0
    2.0212    0.9711   -0.4378 C   0  0  0  0  0  0  0  0  0  0  0  0
  1  2  4  0
  2  3  4  0
  3  4  4  0
  4  5  4  0
  5  6  4  0
  6  1  4  0
M  END
$$$$

     RDKit          3D

  6  6  0  0  0  0  0  0  0  0999 V2000
   -1.1853   -1.2639   -0.8661 N   0  0  0  0  0  0  0  0  0  0  0  0
    0.0941   -0.9179   -0.9981 N   0  0  0  0  0  0  0  0  0  0  0  0
    0.5154    0.3244   -0.6513 C   0  0  0  0  0  0  0  0  0  0  0  0
   -0.3983    1.2145   -0.1860 N   0  0  0  0  0  0  0  0  0  0  0  0
   -1.6778    0.8686   -0.0540 N   0  0  0  0  0  0  0  0  0  0  0  0
   -2.0995   -0.3744   -0.3997 C   0  0  0  0  0  0  0  0  0  0  0  0
  1  2  4  0
  2  3  4  0
  3  4  4  0
  4  5  4  0
  5  6  4  0
  6  1  4  0
M  END
$$$$

     RDKit          3D

  6  6  0  0  0  0  0  0  0  0999 V2000
   -1.6578   -0.9742   -1.5597 N   0  0  0  0  0  0  0  0  0  0  0  0
   -0.3355   -1.0671   -1.6914 N   0  0  0  0  0  0  0  0  0  0  0  0
    0.4799   -0.1085   -1.1816 C   0  0  0  0  0  0  0  0  0  0  0  0
   -0.0815    0.9634   -0.5683 N   0  0  0  0  0  0  0  0  0  0  0  0
   -1.4035    1.0564   -0.4371 N   0  0  0  0  0  0  0  0  0  0  0  0
   -2.2176    0.0815   -0.9140 C   0  0  0  0  0  0  0  0  0  0  0  0
  1  2  4  0
  2  3  4  0
  3  4  4  0
  4  5  4  0
  5  6  4  0
  6  1  4  0
M  END
$$$$

     RDKit          3D

  6  6  0  0  0  0  0  0  0  0999 V2000
    1.3743    0.9453   -0.6580 N   0  0  0  0  0  0  0  0  0  0  0  0
    0.0488    0.9267   -0.5309 N   0  0  0  0  0  0  0  0  0  0  0  0
   -0.5281    0.6979    0.6754 C   0  0  0  0  0  0  0  0  0  0  0  0
    0.2736    0.5244    1.7575 N   0  0  0  0  0  0  0  0  0  0  0  0
    1.5995    0.5426    1.6301 N   0  0  0  0  0  0  0  0  0  0  0  0
    2.1766    0.7360    0.4159 C   0  0  0  0  0  0  0  0  0  0  0  0
  1  2  4  0
  2  3  4  0
  3  4  4  0
  4  5  4  0
  5  6  4  0
  6  1  4  0
M  END
$$$$

     RDKit          3D

  6  6  0  0  0  0  0  0  0  0999 V2000
   -1.3191   -1.4871   -1.3105 N   0  0  0  0  0  0  0  0  0  0  0  0
    0.0093   -1.3885   -1.2967 N   0  0  0  0  0  0  0  0  0  0  0  0
    0.6562   -0.9054   -0.2050 C   0  0  0  0  0  0  0  0  0  0  0  0
   -0.0754   -0.5602    0.8841 N   0  0  0  0  0  0  0  0  0  0  0  0
   -1.4034   -0.6593    0.8704 N   0  0  0  0  0  0  0  0  0  0  0  0
   -2.0536   -1.1077   -0.2328 C   0  0  0  0  0  0  0  0  0  0  0  0
  1  2  4  0
  2  3  4  0
  3  4  4  0
  4  5  4  0
  5  6  4  0
  6  1  4  0
M  END
$$$$

     RDKit          3D

  6  6  0  0  0  0  0  0  0  0999 V2000
   -1.5189    0.5123   -0.5145 N   0  0  0  0  0  0  0  0  0  0  0  0
   -0.2046    0.6670   -0.6647 N   0  0  0  0  0  0  0  0  0  0  0  0
    0.6019   -0.4095   -0.8430 C   0  0  0  0  0  0  0  0  0  0  0  0
    0.0391   -1.6433   -0.9058 N   0  0  0  0  0  0  0  0  0  0  0  0
   -1.2756   -1.7974   -0.7561 N   0  0  0  0  0  0  0  0  0  0  0  0
   -2.0791   -0.7239   -0.5393 C   0  0  0  0  0  0  0  0  0  0  0  0
  1  2  4  0
  2  3  4  0
  3  4  4  0
  4  5  4  0
  5  6  4  0
  6  1  4  0
M  END
$$$$

     RDKit          3D

  6  6  0  0  0  0  0  0  0  0999 V2000
   -1.5871    1.4071   -1.3098 N   0  0  0  0  0  0  0  0  0  0  0  0
   -0.2601    1.4997   -1.3800 N   0  0  0  0  0  0  0  0  0  0  0  0
    0.5242    0.9395   -0.4233 C   0  0  0  0  0  0  0  0  0  0  0  0
   -0.0727    0.3137    0.6227 N   0  0  0  0  0  0  0  0  0  0  0  0
   -1.3994    0.2220    0.6926 N   0  0  0  0  0  0  0  0  0  0  0  0
   -2.1830    0.7511   -0.2805 C   0  0  0  0  0  0  0  0  0  0  0  0
  1  2  4  0
  2  3  4  0
  3  4  4  0
  4  5  4  0
  5  6  4  0
  6  1  4  0
M  END
$$$$

     RDKit          3D

  6  6  0  0  0  0  0  0  0  0999 V2000
    1.4023   -0.3213   -0.5630 N   0  0  0  0  0  0  0  0  0  0  0  0
    0.0713   -0.2899   -0.5298 N   0  0  0  0  0  0  0  0  0  0  0  0
   -0.5927    0.8905   -0.4597 C   0  0  0  0  0  0  0  0  0  0  0  0
    0.1275    2.0419   -0.4595 N   0  0  0  0  0  0  0  0  0  0  0  0
    1.4589    2.0111   -0.4928 N   0  0  0  0  0  0  0  0  0  0  0  0
    2.1239    0.8275   -0.5280 C   0  0  0  0  0  0  0  0  0  0  0  0
  1  2  4  0
  2  3  4  0
  3  4  4  0
  4  5  4  0
  5  6  4  0
  6  1  4  0
M  END
$$$$

     RDKit          3D

  6  6  0  0  0  0  0  0  0  0999 V2000
    1.6407   -0.3774    1.0879 N   0  0  0  0  0  0  0  0  0  0  0  0
    0.3282   -0.4463    1.3038 N   0  0  0  0  0  0  0  0  0  0  0  0
   -0.5484    0.1100    0.4285 C   0  0  0  0  0  0  0  0  0  0  0  0
   -0.0580    0.7546   -0.6596 N   0  0  0  0  0  0  0  0  0  0  0  0
    1.2545    0.8237   -0.8760 N   0  0  0  0  0  0  0  0  0  0  0  0
    2.1315    0.2666   -0.0014 C   0  0  0  0  0  0  0  0  0  0  0  0
  1  2  4  0
  2  3  4  0
  3  4  4  0
  4  5  4  0
  5  6  4  0
  6  1  4  0
M  END
$$$$

     RDKit          3D

  6  6  0  0  0  0  0  0  0  0999 V2000
    1.7331    0.0026    1.2393 N   0  0  0  0  0  0  0  0  0  0  0  0
    0.4737   -0.3860    1.4319 N   0  0  0  0  0  0  0  0  0  0  0  0
   -0.4317   -0.3286    0.4215 C   0  0  0  0  0  0  0  0  0  0  0  0
   -0.0214    0.1145   -0.7930 N   0  0  0  0  0  0  0  0  0  0  0  0
    1.2379    0.5031   -0.9860 N   0  0  0  0  0  0  0  0  0  0  0  0
    2.1433    0.4458    0.0243 C   0  0  0  0  0  0  0  0  0  0  0  0
  1  2  4  0
  2  3  4  0
  3  4  4  0
  4  5  4  0
  5  6  4  0
  6  1  4  0
M  END
$$$$

     RDKit          3D

  6  6  0  0  0  0  0  0  0  0999 V2000
    0.7165    1.0220   -0.5136 N   0  0  0  0  0  0  0  0  0  0  0  0
   -0.6132    1.0956   -0.4945 N   0  0  0  0  0  0  0  0  0  0  0  0
   -1.3605    0.0752    0.0003 C   0  0  0  0  0  0  0  0  0  0  0  0
   -0.7166   -1.0223    0.4752 N   0  0  0  0  0  0  0  0  0  0  0  0
    0.6132   -1.0959    0.4561 N   0  0  0  0  0  0  0  0  0  0  0  0
    1.3605   -0.0755   -0.0388 C   0  0  0  0  0  0  0  0  0  0  0  0
  1  2  4  0
  2  3  4  0
  3  4  4  0
  4  5  4  0
  5  6  4  0
  6  1  4  0
M  END
$$$$

     RDKit          3D

  6  6  0  0  0  0  0  0  0  0999 V2000
    0.7487    1.0879   -0.2356 N   0  0  0  0  0  0  0  0  0  0  0  0
   -0.5736    1.1499   -0.3826 N   0  0  0  0  0  0  0  0  0  0  0  0
   -1.3530    0.0636   -0.1437 C   0  0  0  0  0  0  0  0  0  0  0  0
   -0.7488   -1.0877    0.2488 N   0  0  0  0  0  0  0  0  0  0  0  0
    0.5735   -1.1498    0.3959 N   0  0  0  0  0  0  0  0  0  0  0  0
    1.3529   -0.0634    0.1571 C   0  0  0  0  0  0  0  0  0  0  0  0
  1  2  4  0
  2  3  4  0
  3  4  4  0
  4  5  4  0
  5  6  4  0
  6  1  4  0
M  END
$$$$

     RDKit          3D

  6  6  0  0  0  0  0  0  0  0999 V2000
   -0.5907   -1.1817    0.2274 N   0  0  0  0  0  0  0  0  0  0  0  0
    0.7384   -1.0950    0.2294 N   0  0  0  0  0  0  0  0  0  0  0  0
    1.3598    0.0887   -0.0101 C   0  0  0  0  0  0  0  0  0  0  0  0
    0.5907    1.1817   -0.2520 N   0  0  0  0  0  0  0  0  0  0  0  0
   -0.7384    1.0950   -0.2541 N   0  0  0  0  0  0  0  0  0  0  0  0
   -1.3598   -0.0887   -0.0145 C   0  0  0  0  0  0  0  0  0  0  0  0
  1  2  4  0
  2  3  4  0
  3  4  4  0
  4  5  4  0
  5  6  4  0
  6  1  4  0
M  END
$$$$

     RDKit          3D

  6  6  0  0  0  0  0  0  0  0999 V2000
    0.6534    0.4550   -1.0810 N   0  0  0  0  0  0  0  0  0  0  0  0
   -0.6775    0.4052   -1.0860 N   0  0  0  0  0  0  0  0  0  0  0  0
   -1.3618   -0.0511   -0.0051 C   0  0  0  0  0  0  0  0  0  0  0  0
   -0.6534   -0.4550    1.0810 N   0  0  0  0  0  0  0  0  0  0  0  0
    0.6775   -0.4052    1.0860 N   0  0  0  0  0  0  0  0  0  0  0  0
    1.3618    0.0511    0.0051 C   0  0  0  0  0  0  0  0  0  0  0  0
  1  2  4  0
  2  3  4  0
  3  4  4  0
  4  5  4  0
  5  6  4  0
  6  1  4  0
M  END
$$$$

     RDKit          3D

  6  6  0  0  0  0  0  0  0  0999 V2000
   -0.5741   -0.1440    1.4031 N   0  0  0  0  0  0  0  0  0  0  0  0
    0.7539   -0.1463    1.3007 N   0  0  0  0  0  0  0  0  0  0  0  0
    1.3598   -0.0089    0.0930 C   0  0  0  0  0  0  0  0  0  0  0  0
    0.5764    0.1308   -1.0076 N   0  0  0  0  0  0  0  0  0  0  0  0
   -0.7516    0.1331   -0.9052 N   0  0  0  0  0  0  0  0  0  0  0  0
   -1.3576   -0.0042    0.3025 C   0  0  0  0  0  0  0  0  0  0  0  0
  1  2  4  0
  2  3  4  0
  3  4  4  0
  4  5  4  0
  5  6  4  0
  6  1  4  0
M  END
$$$$

     RDKit          3D

  6  6  0  0  0  0  0  0  0  0999 V2000
    0.7322   -1.1041    0.0235 N   0  0  0  0  0  0  0  0  0  0  0  0
   -0.5957   -1.1874   -0.0388 N   0  0  0  0  0  0  0  0  0  0  0  0
   -1.3597   -0.0695   -0.1445 C   0  0  0  0  0  0  0  0  0  0  0  0
   -0.7346    1.1355   -0.1848 N   0  0  0  0  0  0  0  0  0  0  0  0
    0.5933    1.2188   -0.1224 N   0  0  0  0  0  0  0  0  0  0  0  0
    1.3574    0.1010   -0.0169 C   0  0  0  0  0  0  0  0  0  0  0  0
  1  2  4  0
  2  3  4  0
  3  4  4  0
  4  5  4  0
  5  6  4  0
  6  1  4  0
M  END
$$$$

     RDKit          3D

  7  7  0  0  0  0  0  0  0  0999 V2000
   -0.9533   -0.7975    2.5338 F   0  0  0  0  0  0  0  0  0  0  0  0
   -0.4952   -0.3930    1.3217 C   0  0  0  0  0  0  0  0  0  0  0  0
    0.8838   -0.2882    1.1153 C   0  0  0  0  0  0  0  0  0  0  0  0
    1.3905    0.0956   -0.1370 C   0  0  0  0  0  0  0  0  0  0  0  0
    0.4945    0.3709   -1.1824 C   0  0  0  0  0  0  0  0  0  0  0  0
   -0.8838    0.2668   -0.9786 C   0  0  0  0  0  0  0  0  0  0  0  0
   -1.3911   -0.1120    0.2745 C   0  0  0  0  0  0  0  0  0  0  0  0
  1  2  1  0
  2  3  4  0
  3  4  4  0
  4  5  4  0
  5  6  4  0
  6  7  4  0
  7  2  4  0
M  END
$$$$

     RDKit          3D

  7  7  0  0  0  0  0  0  0  0999 V2000
    1.6476    0.9733    1.9558 F   0  0  0  0  0  0  0  0  0  0  0  0
    0.8463    0.4673    0.9839 C   0  0  0  0  0  0  0  0  0  0  0  0
   -0.5404    0.4944    1.1622 C   0  0  0  0  0  0  0  0  0  0  0  0
   -1.3953   -0.0509    0.1905 C   0  0  0  0  0  0  0  0  0  0  0  0
   -0.8401   -0.6273   -0.9632 C   0  0  0  0  0  0  0  0  0  0  0  0
    0.5451   -0.6555   -1.1435 C   0  0  0  0  0  0  0  0  0  0  0  0
    1.4000   -0.1061   -0.1748 C   0  0  0  0  0  0  0  0  0  0  0  0
  1  2  1  0
  2  3  4  0
  3  4  4  0
  4  5  4  0
  5  6  4  0
  6  7  4  0
  7  2  4  0
M  END
$$$$

     RDKit          3D

  7  7  0  0  0  0  0  0  0  0999 V2000
    1.2474   -0.0586    2.5082 F   0  0  0  0  0  0  0  0  0  0  0  0
    0.6440   -0.0425    1.2924 C   0  0  0  0  0  0  0  0  0  0  0  0
   -0.7527   -0.0338    1.2255 C   0  0  0  0  0  0  0  0  0  0  0  0
   -1.4071    0.0162   -0.0162 C   0  0  0  0  0  0  0  0  0  0  0  0
   -0.6410    0.0602   -1.1920 C   0  0  0  0  0  0  0  0  0  0  0  0
    0.7547    0.0517   -1.1276 C   0  0  0  0  0  0  0  0  0  0  0  0
    1.4095   -0.0033    0.1131 C   0  0  0  0  0  0  0  0  0  0  0  0
  1  2  1  0
  2  3  4  0
  3  4  4  0
  4  5  4  0
  5  6  4  0
  6  7  4  0
  7  2  4  0
M  END
$$$$

     RDKit          3D

  7  7  0  0  0  0  0  0  0  0999 V2000
    1.3479   -2.1795   -1.1454 F   0  0  0  0  0  0  0  0  0  0  0  0
    0.6960   -1.1124   -0.6173 C   0  0  0  0  0  0  0  0  0  0  0  0
   -0.6995   -1.1407   -0.5327 C   0  0  0  0  0  0  0  0  0  0  0  0
   -1.4056   -0.0393   -0.0220 C   0  0  0  0  0  0  0  0  0  0  0  0
   -0.6928    1.0940    0.4010 C   0  0  0  0  0  0  0  0  0  0  0  0
    0.7016    1.1245    0.3174 C   0  0  0  0  0  0  0  0  0  0  0  0
    1.4084    0.0220   -0.1884 C   0  0  0  0  0  0  0  0  0  0  0  0
  1  2  1  0
  2  3  4  0
  3  4  4  0
  4  5  4  0
  5  6  4  0
  6  7  4  0
  7  2  4  0
M  END
$$$$

     RDKit          3D

  7  7  0  0  0  0  0  0  0  0999 V2000
    1.1481    2.5130   -0.0887 F   0  0  0  0  0  0  0  0  0  0  0  0
    0.5942    1.2750   -0.0327 C   0  0  0  0  0  0  0  0  0  0  0  0
   -0.7978    1.1538    0.0225 C   0  0  0  0  0  0  0  0  0  0  0  0
   -1.4031   -0.1133    0.0477 C   0  0  0  0  0  0  0  0  0  0  0  0
   -0.5926   -1.2594    0.0142 C   0  0  0  0  0  0  0  0  0  0  0  0
    0.7985   -1.1407   -0.0410 C   0  0  0  0  0  0  0  0  0  0  0  0
    1.4043    0.1256   -0.0614 C   0  0  0  0  0  0  0  0  0  0  0  0
  1  2  1  0
  2  3  4  0
  3  4  4  0
  4  5  4  0
  5  6  4  0
  6  7  4  0
  7  2  4  0
M  END
$$$$

     RDKit          3D

  7  7  0  0  0  0  0  0  0  0999 V2000
    1.4562   -1.4689    1.7600 F   0  0  0  0  0  0  0  0  0  0  0  0
    0.7492   -0.7341    0.8639 C   0  0  0  0  0  0  0  0  0  0  0  0
   -0.6463   -0.8230    0.8606 C   0  0  0  0  0  0  0  0  0  0  0  0
   -1.4048   -0.1012   -0.0754 C   0  0  0  0  0  0  0  0  0  0  0  0
   -0.7441    0.7104   -1.0115 C   0  0  0  0  0  0  0  0  0  0  0  0
    0.6502    0.8007   -1.0102 C   0  0  0  0  0  0  0  0  0  0  0  0
    1.4088    0.0831   -0.0717 C   0  0  0  0  0  0  0  0  0  0  0  0
  1  2  1  0
  2  3  4  0
  3  4  4  0
  4  5  4  0
  5  6  4  0
  6  7  4  0
  7  2  4  0
M  END
$$$$

     RDKit          3D

  7  7  0  0  0  0  0  0  0  0999 V2000
   -1.3210   -0.0680   -2.3086 F   0  0  0  0  0  0  0  0  0  0  0  0
   -0.6807   -0.0213   -1.1126 C   0  0  0  0  0  0  0  0  0  0  0  0
    0.7155   -0.0939   -1.0845 C   0  0  0  0  0  0  0  0  0  0  0  0
    1.4059   -0.0815    0.1385 C   0  0  0  0  0  0  0  0  0  0  0  0
    0.6763    0.0022    1.3352 C   0  0  0  0  0  0  0  0  0  0  0  0
   -0.7188    0.0747    1.3095 C   0  0  0  0  0  0  0  0  0  0  0  0
   -1.4093    0.0673    0.0872 C   0  0  0  0  0  0  0  0  0  0  0  0
  1  2  1  0
  2  3  4  0
  3  4  4  0
  4  5  4  0
  5  6  4  0
  6  7  4  0
  7  2  4  0
M  END
$$$$

     RDKit          3D

  7  7  0  0  0  0  0  0  0  0999 V2000
   -1.3324    1.1890   -2.2748 F   0  0  0  0  0  0  0  0  0  0  0  0
   -0.6877    0.5915   -1.2404 C   0  0  0  0  0  0  0  0  0  0  0  0
    0.7099    0.5461   -1.2442 C   0  0  0  0  0  0  0  0  0  0  0  0
    1.4077   -0.0355   -0.1731 C   0  0  0  0  0  0  0  0  0  0  0  0
    0.6842   -0.5696    0.9052 C   0  0  0  0  0  0  0  0  0  0  0  0
   -0.7123   -0.5253    0.9113 C   0  0  0  0  0  0  0  0  0  0  0  0
   -1.4106    0.0515   -0.1615 C   0  0  0  0  0  0  0  0  0  0  0  0
  1  2  1  0
  2  3  4  0
  3  4  4  0
  4  5  4  0
  5  6  4  0
  6  7  4  0
  7  2  4  0
M  END
$$$$

     RDKit          3D

  7  7  0  0  0  0  0  0  0  0999 V2000
    1.2763   -2.4247    0.3379 F   0  0  0  0  0  0  0  0  0  0  0  0
    0.6585   -1.2272    0.1735 C   0  0  0  0  0  0  0  0  0  0  0  0
   -0.7384   -1.1823    0.1285 C   0  0  0  0  0  0  0  0  0  0  0  0
   -1.4067    0.0363   -0.0735 C   0  0  0  0  0  0  0  0  0  0  0  0
   -0.6543    1.2110   -0.2329 C   0  0  0  0  0  0  0  0  0  0  0  0
    0.7415    1.1685   -0.1884 C   0  0  0  0  0  0  0  0  0  0  0  0
    1.4101   -0.0486    0.0185 C   0  0  0  0  0  0  0  0  0  0  0  0
  1  2  1  0
  2  3  4  0
  3  4  4  0
  4  5  4  0
  5  6  4  0
  6  7  4  0
  7  2  4  0
M  END
$$$$

     RDKit          3D

  7  7  0  0  0  0  0  0  0  0999 V2000
   -1.2754    2.3637   -0.6850 F   0  0  0  0  0  0  0  0  0  0  0  0
   -0.6588    1.1972   -0.3660 C   0  0  0  0  0  0  0  0  0  0  0  0
    0.7381    1.1375   -0.3877 C   0  0  0  0  0  0  0  0  0  0  0  0
    1.4072   -0.0447   -0.0310 C   0  0  0  0  0  0  0  0  0  0  0  0
    0.6556   -1.1676    0.3510 C   0  0  0  0  0  0  0  0  0  0  0  0
   -0.7403   -1.1102    0.3734 C   0  0  0  0  0  0  0  0  0  0  0  0
   -1.4098    0.0698    0.0123 C   0  0  0  0  0  0  0  0  0  0  0  0
  1  2  1  0
  2  3  4  0
  3  4  4  0
  4  5  4  0
  5  6  4  0
  6  7  4  0
  7  2  4  0
M  END
$$$$
