
     RDKit          3D

 17 17  0  0  0  0  0  0  0  0999 V2000
   -3.1110    2.3483   -0.7352 Cl  0  0  0  0  0  0  0  0  0  0  0  0
   -3.7338    0.7368   -0.3928 C   0  0  0  0  0  0  0  0  0  0  0  0
   -5.1134    0.5275   -0.4373 C   0  0  0  0  0  0  0  0  0  0  0  0
   -5.6263   -0.7071   -0.2042 N   0  0  0  0  0  0  0  0  0  0  0  0
   -4.8348   -1.7740    0.0781 C   0  0  0  0  0  0  0  0  0  0  0  0
   -5.5965   -3.3299    0.3702 Cl  0  0  0  0  0  0  0  0  0  0  0  0
   -3.4395   -1.6190    0.1355 C   0  0  0  0  0  0  0  0  0  0  0  0
   -2.4137   -2.9990    0.5393 Cl  0  0  0  0  0  0  0  0  0  0  0  0
   -2.8803   -0.3461   -0.1043 C   0  0  0  0  0  0  0  0  0  0  0  0
    6.2483   -1.7194    0.6147 Cl  0  0  0  0  0  0  0  0  0  0  0  0
    5.0985   -0.4276    0.3069 C   0  0  0  0  0  0  0  0  0  0  0  0
    5.5747    0.8216    0.0603 N   0  0  0  0  0  0  0  0  0  0  0  0
    4.7479    1.8710   -0.1818 C   0  0  0  0  0  0  0  0  0  0  0  0
    3.3659    1.6863   -0.1842 C   0  0  0  0  0  0  0  0  0  0  0  0
    2.8365    0.4129    0.0657 C   0  0  0  0  0  0  0  0  0  0  0  0
    3.7125   -0.6631    0.3152 C   0  0  0  0  0  0  0  0  0  0  0  0
    3.0876   -2.2757    0.6696 Cl  0  0  0  0  0  0  0  0  0  0  0  0
  1  2  1  0
  2  3  4  0
  3  4  4  0
  4  5  4  0
  5  6  1  0
  5  7  4  0
  7  8  1  0
  7  9  4  0
  9  2  4  0
 10 11  1  0
 11 12  4  0
 12 13  4  0
 13 14  4  0
 14 15  4  0
 15 16  4  0
 16 17  1  0
 16 11  4  0
M  END
$$$$

     RDKit          3D

 17 17  0  0  0  0  0  0  0  0999 V2000
    2.4777   -3.0936    0.1529 Cl  0  0  0  0  0  0  0  0  0  0  0  0
    3.4566   -1.6399   -0.0216 C   0  0  0  0  0  0  0  0  0  0  0  0
    4.8462   -1.7682   -0.0645 C   0  0  0  0  0  0  0  0  0  0  0  0
    5.6322   -0.6672   -0.1722 N   0  0  0  0  0  0  0  0  0  0  0  0
    5.1115    0.5852   -0.2425 C   0  0  0  0  0  0  0  0  0  0  0  0
    6.2139    1.9454   -0.3863 Cl  0  0  0  0  0  0  0  0  0  0  0  0
    3.7194    0.7712   -0.2038 C   0  0  0  0  0  0  0  0  0  0  0  0
    3.0419    2.3973   -0.3327 Cl  0  0  0  0  0  0  0  0  0  0  0  0
    2.8795   -0.3567   -0.0907 C   0  0  0  0  0  0  0  0  0  0  0  0
   -5.6641    3.2052    0.1425 Cl  0  0  0  0  0  0  0  0  0  0  0  0
   -4.8498    1.6492    0.1781 C   0  0  0  0  0  0  0  0  0  0  0  0
   -5.6032    0.5236    0.2942 N   0  0  0  0  0  0  0  0  0  0  0  0
   -5.0458   -0.7142    0.3243 C   0  0  0  0  0  0  0  0  0  0  0  0
   -3.6621   -0.8602    0.2363 C   0  0  0  0  0  0  0  0  0  0  0  0
   -2.8515    0.2766    0.1157 C   0  0  0  0  0  0  0  0  0  0  0  0
   -3.4502    1.5525    0.0860 C   0  0  0  0  0  0  0  0  0  0  0  0
   -2.4696    3.0086   -0.1004 Cl  0  0  0  0  0  0  0  0  0  0  0  0
  1  2  1  0
  2  3  4  0
  3  4  4  0
  4  5  4  0
  5  6  1  0
  5  7  4  0
  7  8  1  0
  7  9  4  0
  9  2  4  0
 10 11  1  0
 11 12  4  0
 12 13  4  0
 13 14  4  0
 14 15  4  0
 15 16  4  0
 16 17  1  0
 16 11  4  0
M  END
$$$$

     RDKit          3D

 17 17  0  0  0  0  0  0  0  0999 V2000
    2.6450   -0.8130    2.8221 Cl  0  0  0  0  0  0  0  0  0  0  0  0
    3.5436   -0.3006    1.3965 C   0  0  0  0  0  0  0  0  0  0  0  0
    4.9382   -0.2715    1.4574 C   0  0  0  0  0  0  0  0  0  0  0  0
    5.6633    0.0921    0.3695 N   0  0  0  0  0  0  0  0  0  0  0  0
    5.0754    0.4378   -0.8050 C   0  0  0  0  0  0  0  0  0  0  0  0
    6.1025    0.8984   -2.1538 Cl  0  0  0  0  0  0  0  0  0  0  0  0
    3.6753    0.4258   -0.9210 C   0  0  0  0  0  0  0  0  0  0  0  0
    2.9107    0.9098   -2.4378 Cl  0  0  0  0  0  0  0  0  0  0  0  0
    2.8977    0.0510    0.1950 C   0  0  0  0  0  0  0  0  0  0  0  0
   -6.1054   -0.7390    2.2091 Cl  0  0  0  0  0  0  0  0  0  0  0  0
   -5.0553   -0.3272    0.8625 C   0  0  0  0  0  0  0  0  0  0  0  0
   -5.6236    0.0278   -0.3202 N   0  0  0  0  0  0  0  0  0  0  0  0
   -4.8774    0.3549   -1.4064 C   0  0  0  0  0  0  0  0  0  0  0  0
   -3.4854    0.3347   -1.3303 C   0  0  0  0  0  0  0  0  0  0  0  0
   -2.8622   -0.0259   -0.1279 C   0  0  0  0  0  0  0  0  0  0  0  0
   -3.6554   -0.3624    0.9878 C   0  0  0  0  0  0  0  0  0  0  0  0
   -2.9120   -0.8568    2.5109 Cl  0  0  0  0  0  0  0  0  0  0  0  0
  1  2  1  0
  2  3  4  0
  3  4  4  0
  4  5  4  0
  5  6  1  0
  5  7  4  0
  7  8  1  0
  7  9  4  0
  9  2  4  0
 10 11  1  0
 11 12  4  0
 12 13  4  0
 13 14  4  0
 14 15  4  0
 15 16  4  0
 16 17  1  0
 16 11  4  0
M  END
$$$$

     RDKit          3D

 17 17  0  0  0  0  0  0  0  0999 V2000
    2.7094   -0.7122    2.8473 Cl  0  0  0  0  0  0  0  0  0  0  0  0
    3.5602   -0.5916    1.3099 C   0  0  0  0  0  0  0  0  0  0  0  0
    4.9481   -0.7425    1.2977 C   0  0  0  0  0  0  0  0  0  0  0  0
    5.6389   -0.6288    0.1352 N   0  0  0  0  0  0  0  0  0  0  0  0
    5.0219   -0.3684   -1.0464 C   0  0  0  0  0  0  0  0  0  0  0  0
    6.0051   -0.2451   -2.4970 Cl  0  0  0  0  0  0  0  0  0  0  0  0
    3.6268   -0.2075   -1.0909 C   0  0  0  0  0  0  0  0  0  0  0  0
    2.8218    0.0958   -2.6335 Cl  0  0  0  0  0  0  0  0  0  0  0  0
    2.8849   -0.3202    0.1037 C   0  0  0  0  0  0  0  0  0  0  0  0
   -6.0207    0.1098    2.6022 Cl  0  0  0  0  0  0  0  0  0  0  0  0
   -5.0107    0.2740    1.1745 C   0  0  0  0  0  0  0  0  0  0  0  0
   -5.6089    0.5285   -0.0194 N   0  0  0  0  0  0  0  0  0  0  0  0
   -4.8943    0.6724   -1.1650 C   0  0  0  0  0  0  0  0  0  0  0  0
   -3.5049    0.5588   -1.1413 C   0  0  0  0  0  0  0  0  0  0  0  0
   -2.8515    0.2966    0.0705 C   0  0  0  0  0  0  0  0  0  0  0  0
   -3.6121    0.1511    1.2485 C   0  0  0  0  0  0  0  0  0  0  0  0
   -2.8273   -0.1443    2.8021 Cl  0  0  0  0  0  0  0  0  0  0  0  0
  1  2  1  0
  2  3  4  0
  3  4  4  0
  4  5  4  0
  5  6  1  0
  5  7  4  0
  7  8  1  0
  7  9  4  0
  9  2  4  0
 10 11  1  0
 11 12  4  0
 12 13  4  0
 13 14  4  0
 14 15  4  0
 15 16  4  0
 16 17  1  0
 16 11  4  0
M  END
$$$$

     RDKit          3D

 15 15  0  0  0  0  0  0  0  0999 V2000
    4.2637    3.1438   -0.0019 C   0  0  0  0  0  0  0  0  0  0  0  0
    3.6628    1.7757    0.0608 C   0  0  0  0  0  0  0  0  0  0  0  0
    2.2800    1.6067   -0.0207 C   0  0  0  0  0  0  0  0  0  0  0  0
    1.7253    0.3224    0.0668 C   0  0  0  0  0  0  0  0  0  0  0  0
    2.5822   -0.7997    0.2056 C   0  0  0  0  0  0  0  0  0  0  0  0
    2.0265   -2.2065    0.2461 C   0  0  0  0  0  0  0  0  0  0  0  0
    3.9746   -0.5707    0.3368 C   0  0  0  0  0  0  0  0  0  0  0  0
    4.9522   -1.6913    0.5437 C   0  0  0  0  0  0  0  0  0  0  0  0
    4.4625    0.6960    0.2512 N   0  0  0  0  0  0  0  0  0  0  0  0
   -6.2212    0.7711   -0.6341 C   0  0  0  0  0  0  0  0  0  0  0  0
   -4.8307    0.9025   -0.6072 C   0  0  0  0  0  0  0  0  0  0  0  0
   -4.0424   -0.1383   -0.0862 C   0  0  0  0  0  0  0  0  0  0  0  0
   -4.6831   -1.2925    0.3969 C   0  0  0  0  0  0  0  0  0  0  0  0
   -6.0764   -1.3823    0.3497 C   0  0  0  0  0  0  0  0  0  0  0  0
   -6.8097   -0.3581   -0.1598 N   0  0  0  0  0  0  0  0  0  0  0  0
  1  2  1  0
  2  3  4  0
  3  4  4  0
  4  5  4  0
  5  6  1  0
  5  7  4  0
  7  8  1  0
  7  9  4  0
  9  2  4  0
 10 11  4  0
 11 12  4  0
 12 13  4  0
 13 14  4  0
 14 15  4  0
 15 10  4  0
M  END
$$$$

     RDKit          3D

 15 15  0  0  0  0  0  0  0  0999 V2000
   -4.4182    2.1580    1.9348 C   0  0  0  0  0  0  0  0  0  0  0  0
   -3.7484    1.1924    1.0097 C   0  0  0  0  0  0  0  0  0  0  0  0
   -2.3562    1.1425    0.9271 C   0  0  0  0  0  0  0  0  0  0  0  0
   -1.7382    0.2149    0.0772 C   0  0  0  0  0  0  0  0  0  0  0  0
   -2.5392   -0.6451   -0.7173 C   0  0  0  0  0  0  0  0  0  0  0  0
   -1.9114   -1.6205   -1.6890 C   0  0  0  0  0  0  0  0  0  0  0  0
   -3.9463   -0.5917   -0.5578 C   0  0  0  0  0  0  0  0  0  0  0  0
   -4.8709   -1.5015   -1.3139 C   0  0  0  0  0  0  0  0  0  0  0  0
   -4.4970    0.3228    0.2850 N   0  0  0  0  0  0  0  0  0  0  0  0
    6.1228   -1.1214   -0.4442 C   0  0  0  0  0  0  0  0  0  0  0  0
    4.7260   -1.0995   -0.4438 C   0  0  0  0  0  0  0  0  0  0  0  0
    4.0470    0.0329    0.0384 C   0  0  0  0  0  0  0  0  0  0  0  0
    4.8012    1.1208    0.5114 C   0  0  0  0  0  0  0  0  0  0  0  0
    6.1965    1.0559    0.4938 C   0  0  0  0  0  0  0  0  0  0  0  0
    6.8225   -0.0533    0.0205 N   0  0  0  0  0  0  0  0  0  0  0  0
  1  2  1  0
  2  3  4  0
  3  4  4  0
  4  5  4  0
  5  6  1  0
  5  7  4  0
  7  8  1  0
  7  9  4  0
  9  2  4  0
 10 11  4  0
 11 12  4  0
 12 13  4  0
 13 14  4  0
 14 15  4  0
 15 10  4  0
M  END
$$$$

     RDKit          3D

 15 15  0  0  0  0  0  0  0  0999 V2000
    4.5541    2.6681   -0.4569 C   0  0  0  0  0  0  0  0  0  0  0  0
    3.8209    1.3829   -0.2396 C   0  0  0  0  0  0  0  0  0  0  0  0
    2.4269    1.3662   -0.1770 C   0  0  0  0  0  0  0  0  0  0  0  0
    1.7486    0.1524   -0.0005 C   0  0  0  0  0  0  0  0  0  0  0  0
    2.4915   -1.0473    0.1454 C   0  0  0  0  0  0  0  0  0  0  0  0
    1.7991   -2.3694    0.3947 C   0  0  0  0  0  0  0  0  0  0  0  0
    3.9018   -0.9845    0.0215 C   0  0  0  0  0  0  0  0  0  0  0  0
    4.7663   -2.2093    0.1054 C   0  0  0  0  0  0  0  0  0  0  0  0
    4.5121    0.2180   -0.1556 N   0  0  0  0  0  0  0  0  0  0  0  0
   -6.1245    1.4865    0.2727 C   0  0  0  0  0  0  0  0  0  0  0  0
   -4.7276    1.4781    0.2719 C   0  0  0  0  0  0  0  0  0  0  0  0
   -4.0382    0.2782    0.0246 C   0  0  0  0  0  0  0  0  0  0  0  0
   -4.7823   -0.8898   -0.2165 C   0  0  0  0  0  0  0  0  0  0  0  0
   -6.1782   -0.8362   -0.2052 C   0  0  0  0  0  0  0  0  0  0  0  0
   -6.8144    0.3399    0.0366 N   0  0  0  0  0  0  0  0  0  0  0  0
  1  2  1  0
  2  3  4  0
  3  4  4  0
  4  5  4  0
  5  6  1  0
  5  7  4  0
  7  8  1  0
  7  9  4  0
  9  2  4  0
 10 11  4  0
 11 12  4  0
 12 13  4  0
 13 14  4  0
 14 15  4  0
 15 10  4  0
M  END
$$$$

     RDKit          3D

 15 15  0  0  0  0  0  0  0  0999 V2000
   -4.5648    2.6376   -0.5210 C   0  0  0  0  0  0  0  0  0  0  0  0
   -3.8261    1.3679   -0.2398 C   0  0  0  0  0  0  0  0  0  0  0  0
   -2.4333    1.3285   -0.3172 C   0  0  0  0  0  0  0  0  0  0  0  0
   -1.7493    0.1406   -0.0249 C   0  0  0  0  0  0  0  0  0  0  0  0
   -2.4859   -1.0227    0.3168 C   0  0  0  0  0  0  0  0  0  0  0  0
   -1.7882   -2.3386    0.5837 C   0  0  0  0  0  0  0  0  0  0  0  0
   -3.8942   -0.9172    0.4333 C   0  0  0  0  0  0  0  0  0  0  0  0
   -4.7510   -2.0797    0.8441 C   0  0  0  0  0  0  0  0  0  0  0  0
   -4.5102    0.2606    0.1446 N   0  0  0  0  0  0  0  0  0  0  0  0
    6.1221   -0.2062   -1.3515 C   0  0  0  0  0  0  0  0  0  0  0  0
    4.7258   -0.2421   -1.3281 C   0  0  0  0  0  0  0  0  0  0  0  0
    4.0349    0.2476   -0.2061 C   0  0  0  0  0  0  0  0  0  0  0  0
    4.7770    0.7650    0.8699 C   0  0  0  0  0  0  0  0  0  0  0  0
    6.1723    0.7827    0.8039 C   0  0  0  0  0  0  0  0  0  0  0  0
    6.8099    0.3010   -0.2951 N   0  0  0  0  0  0  0  0  0  0  0  0
  1  2  1  0
  2  3  4  0
  3  4  4  0
  4  5  4  0
  5  6  1  0
  5  7  4  0
  7  8  1  0
  7  9  4  0
  9  2  4  0
 10 11  4  0
 11 12  4  0
 12 13  4  0
 13 14  4  0
 14 15  4  0
 15 10  4  0
M  END
$$$$

     RDKit          3D

 15 15  0  0  0  0  0  0  0  0999 V2000
   -4.3938    2.9433    0.3114 C   0  0  0  0  0  0  0  0  0  0  0  0
   -3.7344    1.6152    0.1163 C   0  0  0  0  0  0  0  0  0  0  0  0
   -2.3427    1.5128    0.0996 C   0  0  0  0  0  0  0  0  0  0  0  0
   -1.7349    0.2595   -0.0564 C   0  0  0  0  0  0  0  0  0  0  0  0
   -2.5451   -0.8923   -0.2287 C   0  0  0  0  0  0  0  0  0  0  0  0
   -1.9275   -2.2547   -0.4569 C   0  0  0  0  0  0  0  0  0  0  0  0
   -3.9521   -0.7428   -0.1514 C   0  0  0  0  0  0  0  0  0  0  0  0
   -4.8871   -1.9120   -0.2658 C   0  0  0  0  0  0  0  0  0  0  0  0
   -4.4928    0.4951    0.0075 N   0  0  0  0  0  0  0  0  0  0  0  0
    6.1258   -0.0120    1.3528 C   0  0  0  0  0  0  0  0  0  0  0  0
    4.7300    0.0424    1.3368 C   0  0  0  0  0  0  0  0  0  0  0  0
    4.0462    0.0293    0.1086 C   0  0  0  0  0  0  0  0  0  0  0  0
    4.7948   -0.0394   -1.0793 C   0  0  0  0  0  0  0  0  0  0  0  0
    6.1892   -0.0934   -1.0169 C   0  0  0  0  0  0  0  0  0  0  0  0
    6.8199   -0.0785    0.1866 N   0  0  0  0  0  0  0  0  0  0  0  0
  1  2  1  0
  2  3  4  0
  3  4  4  0
  4  5  4  0
  5  6  1  0
  5  7  4  0
  7  8  1  0
  7  9  4  0
  9  2  4  0
 10 11  4  0
 11 12  4  0
 12 13  4  0
 13 14  4  0
 14 15  4  0
 15 10  4  0
M  END
$$$$

     RDKit          3D

 22 22  0  0  0  0  0  0  0  0999 V2000
   -2.1403   -2.3155    1.6497 C   0  0  0  0  0  0  0  0  0  0  0  0
   -3.0193   -1.3958    0.8386 C   0  0  0  0  0  0  0  0  0  0  0  0
   -4.4000   -1.6101    0.8267 C   0  0  0  0  0  0  0  0  0  0  0  0
   -5.2593   -0.7912    0.0843 C   0  0  0  0  0  0  0  0  0  0  0  0
   -6.7164   -1.0587    0.1789 C   0  0  0  0  0  0  0  0  0  0  0  0
   -7.5527   -0.1196    0.1097 O   0  0  0  0  0  0  0  0  0  0  0  0
   -7.1747   -2.3516    0.4054 O   0  0  0  0  0  1  0  0  0  0  0  0
   -4.7172    0.2589   -0.7034 C   0  0  0  0  0  0  0  0  0  0  0  0
   -5.6109    1.0556   -1.6332 C   0  0  0  0  0  0  0  0  0  0  0  0
   -3.3286    0.5557   -0.6117 C   0  0  0  0  0  0  0  0  0  0  0  0
   -2.7547    1.7571   -1.3387 C   0  0  0  0  0  0  0  0  0  0  0  0
   -2.4769   -0.3031    0.1307 C   0  0  0  0  0  0  0  0  0  0  0  0
    6.4636   -1.2240   -0.2427 C   0  0  0  0  0  0  0  0  0  0  0  0
    5.5312   -0.0841    0.0796 C   0  0  0  0  0  0  0  0  0  0  0  0
    4.1452   -0.3199    0.0215 C   0  0  0  0  0  0  0  0  0  0  0  0
    3.2221    0.6875    0.3429 C   0  0  0  0  0  0  0  0  0  0  0  0
    3.6994    1.9473    0.7273 C   0  0  0  0  0  0  0  0  0  0  0  0
    5.0695    2.2014    0.7782 C   0  0  0  0  0  0  0  0  0  0  0  0
    6.0054    1.2055    0.4469 C   0  0  0  0  0  0  0  0  0  0  0  0
    7.4495    1.5588    0.5005 C   0  0  0  0  0  0  0  0  0  0  0  0
    8.3123    0.8864   -0.1222 O   0  0  0  0  0  0  0  0  0  0  0  0
    7.8676    2.6720    1.2213 O   0  0  0  0  0  1  0  0  0  0  0  0
  1  2  1  0
  2  3  4  0
  3  4  4  0
  4  5  1  0
  5  6  2  0
  5  7  1  0
  4  8  4  0
  8  9  1  0
  8 10  4  0
 10 11  1  0
 10 12  4  0
 12  2  4  0
 13 14  1  0
 14 15  4  0
 15 16  4  0
 16 17  4  0
 17 18  4  0
 18 19  4  0
 19 20  1  0
 20 21  2  0
 20 22  1  0
 19 14  4  0
M  CHG  2   7  -1  22  -1
M  END
$$$$

     RDKit          3D

 22 22  0  0  0  0  0  0  0  0999 V2000
   -2.1498    0.3617    2.8194 C   0  0  0  0  0  0  0  0  0  0  0  0
   -3.0164    0.0544    1.6232 C   0  0  0  0  0  0  0  0  0  0  0  0
   -4.3987   -0.0554    1.7952 C   0  0  0  0  0  0  0  0  0  0  0  0
   -5.2486   -0.3317    0.7174 C   0  0  0  0  0  0  0  0  0  0  0  0
   -6.6965   -0.4878    1.0058 C   0  0  0  0  0  0  0  0  0  0  0  0
   -7.4056   -1.2901    0.3428 O   0  0  0  0  0  0  0  0  0  0  0  0
   -7.2773    0.2118    2.0575 O   0  0  0  0  0  1  0  0  0  0  0  0
   -4.7025   -0.4692   -0.5863 C   0  0  0  0  0  0  0  0  0  0  0  0
   -5.6174   -0.6129   -1.7863 C   0  0  0  0  0  0  0  0  0  0  0  0
   -3.2896   -0.4706   -0.7552 C   0  0  0  0  0  0  0  0  0  0  0  0
   -2.6834   -0.7522   -2.1171 C   0  0  0  0  0  0  0  0  0  0  0  0
   -2.4523   -0.1662    0.3495 C   0  0  0  0  0  0  0  0  0  0  0  0
    6.3950   -1.0473    1.5740 C   0  0  0  0  0  0  0  0  0  0  0  0
    5.5419   -0.4320    0.4940 C   0  0  0  0  0  0  0  0  0  0  0  0
    4.1434   -0.4797    0.6410 C   0  0  0  0  0  0  0  0  0  0  0  0
    3.2919    0.1045   -0.3097 C   0  0  0  0  0  0  0  0  0  0  0  0
    3.8545    0.7434   -1.4225 C   0  0  0  0  0  0  0  0  0  0  0  0
    5.2381    0.7890   -1.5897 C   0  0  0  0  0  0  0  0  0  0  0  0
    6.1027    0.1978   -0.6514 C   0  0  0  0  0  0  0  0  0  0  0  0
    7.5660    0.2654   -0.9108 C   0  0  0  0  0  0  0  0  0  0  0  0
    8.3672   -0.5323   -0.3575 O   0  0  0  0  0  0  0  0  0  0  0  0
    8.0718    1.2013   -1.8063 O   0  0  0  0  0  1  0  0  0  0  0  0
  1  2  1  0
  2  3  4  0
  3  4  4  0
  4  5  1  0
  5  6  2  0
  5  7  1  0
  4  8  4  0
  8  9  1  0
  8 10  4  0
 10 11  1  0
 10 12  4  0
 12  2  4  0
 13 14  1  0
 14 15  4  0
 15 16  4  0
 16 17  4  0
 17 18  4  0
 18 19  4  0
 19 20  1  0
 20 21  2  0
 20 22  1  0
 19 14  4  0
M  CHG  2   7  -1  22  -1
M  END
$$$$

     RDKit          3D

 22 22  0  0  0  0  0  0  0  0999 V2000
   -2.3741   -0.2815   -2.8995 C   0  0  0  0  0  0  0  0  0  0  0  0
   -3.1459   -0.1272   -1.6124 C   0  0  0  0  0  0  0  0  0  0  0  0
   -4.5405   -0.0551   -1.6601 C   0  0  0  0  0  0  0  0  0  0  0  0
   -5.3038    0.0955   -0.4960 C   0  0  0  0  0  0  0  0  0  0  0  0
   -6.7814    0.1040   -0.6389 C   0  0  0  0  0  0  0  0  0  0  0  0
   -7.5213   -0.3760    0.2601 O   0  0  0  0  0  0  0  0  0  0  0  0
   -7.3667    0.5923   -1.8016 O   0  0  0  0  0  1  0  0  0  0  0  0
   -4.6494    0.2133    0.7589 C   0  0  0  0  0  0  0  0  0  0  0  0
   -5.4459    0.5322    2.0085 C   0  0  0  0  0  0  0  0  0  0  0  0
   -3.2403    0.0296    0.8318 C   0  0  0  0  0  0  0  0  0  0  0  0
   -2.5404    0.0154    2.1777 C   0  0  0  0  0  0  0  0  0  0  0  0
   -2.4883   -0.0992   -0.3649 C   0  0  0  0  0  0  0  0  0  0  0  0
    6.1904    1.0173    1.6826 C   0  0  0  0  0  0  0  0  0  0  0  0
    5.4369    0.0982    0.7552 C   0  0  0  0  0  0  0  0  0  0  0  0
    4.0360    0.2146    0.6951 C   0  0  0  0  0  0  0  0  0  0  0  0
    3.2757   -0.5903   -0.1676 C   0  0  0  0  0  0  0  0  0  0  0  0
    3.9327   -1.5261   -0.9771 C   0  0  0  0  0  0  0  0  0  0  0  0
    5.3193   -1.6621   -0.9219 C   0  0  0  0  0  0  0  0  0  0  0  0
    6.0927   -0.8698   -0.0548 C   0  0  0  0  0  0  0  0  0  0  0  0
    7.5639   -1.0896   -0.0338 C   0  0  0  0  0  0  0  0  0  0  0  0
    8.2681   -0.7196    0.9417 O   0  0  0  0  0  0  0  0  0  0  0  0
    8.1849   -1.7463   -1.0906 O   0  0  0  0  0  1  0  0  0  0  0  0
  1  2  1  0
  2  3  4  0
  3  4  4  0
  4  5  1  0
  5  6  2  0
  5  7  1  0
  4  8  4  0
  8  9  1  0
  8 10  4  0
 10 11  1  0
 10 12  4  0
 12  2  4  0
 13 14  1  0
 14 15  4  0
 15 16  4  0
 16 17  4  0
 17 18  4  0
 18 19  4  0
 19 20  1  0
 20 21  2  0
 20 22  1  0
 19 14  4  0
M  CHG  2   7  -1  22  -1
M  END
$$$$

     RDKit          3D

 22 22  0  0  0  0  0  0  0  0999 V2000
    2.2754   -2.9941    0.0734 C   0  0  0  0  0  0  0  0  0  0  0  0
    3.0898   -1.7244    0.0523 C   0  0  0  0  0  0  0  0  0  0  0  0
    4.4840   -1.8110    0.0179 C   0  0  0  0  0  0  0  0  0  0  0  0
    5.2862   -0.6630   -0.0101 C   0  0  0  0  0  0  0  0  0  0  0  0
    6.7594   -0.8441    0.0157 C   0  0  0  0  0  0  0  0  0  0  0  0
    7.2836   -1.8537   -0.5259 O   0  0  0  0  0  0  0  0  0  0  0  0
    7.5767    0.0610    0.6826 O   0  0  0  0  0  1  0  0  0  0  0  0
    4.6738    0.6170   -0.0385 C   0  0  0  0  0  0  0  0  0  0  0  0
    5.5169    1.8625   -0.2252 C   0  0  0  0  0  0  0  0  0  0  0  0
    3.2623    0.7199    0.1075 C   0  0  0  0  0  0  0  0  0  0  0  0
    2.6030    2.0822    0.2132 C   0  0  0  0  0  0  0  0  0  0  0  0
    2.4710   -0.4582    0.1109 C   0  0  0  0  0  0  0  0  0  0  0  0
   -6.0929    2.0115   -1.0298 C   0  0  0  0  0  0  0  0  0  0  0  0
   -5.4047    0.9403   -0.2225 C   0  0  0  0  0  0  0  0  0  0  0  0
   -4.0041    0.8373   -0.3085 C   0  0  0  0  0  0  0  0  0  0  0  0
   -3.2975   -0.1148    0.4428 C   0  0  0  0  0  0  0  0  0  0  0  0
   -4.0089   -0.9736    1.2909 C   0  0  0  0  0  0  0  0  0  0  0  0
   -5.3982   -0.8931    1.3786 C   0  0  0  0  0  0  0  0  0  0  0  0
   -6.1202    0.0474    0.6224 C   0  0  0  0  0  0  0  0  0  0  0  0
   -7.6023    0.0564    0.7501 C   0  0  0  0  0  0  0  0  0  0  0  0
   -8.3331    0.5744   -0.1341 O   0  0  0  0  0  0  0  0  0  0  0  0
   -8.2103   -0.5455    1.8463 O   0  0  0  0  0  1  0  0  0  0  0  0
  1  2  1  0
  2  3  4  0
  3  4  4  0
  4  5  1  0
  5  6  2  0
  5  7  1  0
  4  8  4  0
  8  9  1  0
  8 10  4  0
 10 11  1  0
 10 12  4  0
 12  2  4  0
 13 14  1  0
 14 15  4  0
 15 16  4  0
 16 17  4  0
 17 18  4  0
 18 19  4  0
 19 20  1  0
 20 21  2  0
 20 22  1  0
 19 14  4  0
M  CHG  2   7  -1  22  -1
M  END
$$$$

     RDKit          3D

 22 22  0  0  0  0  0  0  0  0999 V2000
   -2.3054   -1.8603   -2.5297 C   0  0  0  0  0  0  0  0  0  0  0  0
   -3.0972   -1.1581   -1.4545 C   0  0  0  0  0  0  0  0  0  0  0  0
   -4.4861   -1.3080   -1.4249 C   0  0  0  0  0  0  0  0  0  0  0  0
   -5.2685   -0.6710   -0.4531 C   0  0  0  0  0  0  0  0  0  0  0  0
   -6.7297   -0.9326   -0.4566 C   0  0  0  0  0  0  0  0  0  0  0  0
   -7.3318   -1.1524   -1.5413 O   0  0  0  0  0  0  0  0  0  0  0  0
   -7.4449   -0.9958    0.7336 O   0  0  0  0  0  1  0  0  0  0  0  0
   -4.6453    0.1727    0.5029 C   0  0  0  0  0  0  0  0  0  0  0  0
   -5.4863    0.9905    1.4624 C   0  0  0  0  0  0  0  0  0  0  0  0
   -3.2251    0.2453    0.5508 C   0  0  0  0  0  0  0  0  0  0  0  0
   -2.5377    1.0362    1.6478 C   0  0  0  0  0  0  0  0  0  0  0  0
   -2.4571   -0.3915   -0.4585 C   0  0  0  0  0  0  0  0  0  0  0  0
    6.1697   -0.4734    1.9801 C   0  0  0  0  0  0  0  0  0  0  0  0
    5.4502   -0.1485    0.6958 C   0  0  0  0  0  0  0  0  0  0  0  0
    4.0471   -0.2519    0.6732 C   0  0  0  0  0  0  0  0  0  0  0  0
    3.3127    0.0694   -0.4790 C   0  0  0  0  0  0  0  0  0  0  0  0
    3.9986    0.4986   -1.6228 C   0  0  0  0  0  0  0  0  0  0  0  0
    5.3897    0.5947   -1.6213 C   0  0  0  0  0  0  0  0  0  0  0  0
    6.1390    0.2649   -0.4779 C   0  0  0  0  0  0  0  0  0  0  0  0
    7.6208    0.3684   -0.5604 C   0  0  0  0  0  0  0  0  0  0  0  0
    8.3666   -0.2464    0.2459 O   0  0  0  0  0  0  0  0  0  0  0  0
    8.2107    1.1288   -1.5641 O   0  0  0  0  0  1  0  0  0  0  0  0
  1  2  1  0
  2  3  4  0
  3  4  4  0
  4  5  1  0
  5  6  2  0
  5  7  1  0
  4  8  4  0
  8  9  1  0
  8 10  4  0
 10 11  1  0
 10 12  4  0
 12  2  4  0
 13 14  1  0
 14 15  4  0
 15 16  4  0
 16 17  4  0
 17 18  4  0
 18 19  4  0
 19 20  1  0
 20 21  2  0
 20 22  1  0
 19 14  4  0
M  CHG  2   7  -1  22  -1
M  END
$$$$

     RDKit          3D

 22 22  0  0  0  0  0  0  0  0999 V2000
   -2.2523    2.3049    1.7332 C   0  0  0  0  0  0  0  0  0  0  0  0
   -3.0670    1.2405    1.0408 C   0  0  0  0  0  0  0  0  0  0  0  0
   -4.4545    1.2309    1.2058 C   0  0  0  0  0  0  0  0  0  0  0  0
   -5.2576    0.2697    0.5784 C   0  0  0  0  0  0  0  0  0  0  0  0
   -6.7157    0.2945    0.8558 C   0  0  0  0  0  0  0  0  0  0  0  0
   -7.2998    1.3879    1.0809 O   0  0  0  0  0  0  0  0  0  0  0  0
   -7.4471   -0.8853    0.9281 O   0  0  0  0  0  1  0  0  0  0  0  0
   -4.6573   -0.6959   -0.2709 C   0  0  0  0  0  0  0  0  0  0  0  0
   -5.5208   -1.6440   -1.0785 C   0  0  0  0  0  0  0  0  0  0  0  0
   -3.2388   -0.7642   -0.3588 C   0  0  0  0  0  0  0  0  0  0  0  0
   -2.5758   -1.8717   -1.1558 C   0  0  0  0  0  0  0  0  0  0  0  0
   -2.4496    0.2347    0.2684 C   0  0  0  0  0  0  0  0  0  0  0  0
    6.1415   -2.3278    0.2596 C   0  0  0  0  0  0  0  0  0  0  0  0
    5.4371   -1.0336   -0.0590 C   0  0  0  0  0  0  0  0  0  0  0  0
    4.0357   -0.9906    0.0596 C   0  0  0  0  0  0  0  0  0  0  0  0
    3.3146    0.1717   -0.2551 C   0  0  0  0  0  0  0  0  0  0  0  0
    4.0122    1.3050   -0.6932 C   0  0  0  0  0  0  0  0  0  0  0  0
    5.4020    1.2833   -0.8044 C   0  0  0  0  0  0  0  0  0  0  0  0
    6.1383    0.1296   -0.4814 C   0  0  0  0  0  0  0  0  0  0  0  0
    7.6198    0.1906   -0.6012 C   0  0  0  0  0  0  0  0  0  0  0  0
    8.3606   -0.6257    0.0066 O   0  0  0  0  0  0  0  0  0  0  0  0
    8.2159    1.1847   -1.3693 O   0  0  0  0  0  1  0  0  0  0  0  0
  1  2  1  0
  2  3  4  0
  3  4  4  0
  4  5  1  0
  5  6  2  0
  5  7  1  0
  4  8  4  0
  8  9  1  0
  8 10  4  0
 10 11  1  0
 10 12  4  0
 12  2  4  0
 13 14  1  0
 14 15  4  0
 15 16  4  0
 16 17  4  0
 17 18  4  0
 18 19  4  0
 19 20  1  0
 20 21  2  0
 20 22  1  0
 19 14  4  0
M  CHG  2   7  -1  22  -1
M  END
$$$$

     RDKit          3D

 22 22  0  0  0  0  0  0  0  0999 V2000
   -1.9707    1.9574    2.3450 C   0  0  0  0  0  0  0  0  0  0  0  0
   -2.9156    1.2459    1.4085 C   0  0  0  0  0  0  0  0  0  0  0  0
   -4.2900    1.4646    1.5334 C   0  0  0  0  0  0  0  0  0  0  0  0
   -5.2104    0.8234    0.6943 C   0  0  0  0  0  0  0  0  0  0  0  0
   -6.6476    1.1585    0.8548 C   0  0  0  0  0  0  0  0  0  0  0  0
   -7.1057    1.4589    1.9894 O   0  0  0  0  0  0  0  0  0  0  0  0
   -7.4960    1.2022   -0.2454 O   0  0  0  0  0  1  0  0  0  0  0  0
   -4.7439   -0.0944   -0.2826 C   0  0  0  0  0  0  0  0  0  0  0  0
   -5.7291   -0.9125   -1.0932 C   0  0  0  0  0  0  0  0  0  0  0  0
   -3.3443   -0.2409   -0.4922 C   0  0  0  0  0  0  0  0  0  0  0  0
   -2.8285   -1.1154   -1.6195 C   0  0  0  0  0  0  0  0  0  0  0  0
   -2.4338    0.4021    0.3861 C   0  0  0  0  0  0  0  0  0  0  0  0
    6.4160    1.7982   -0.1453 C   0  0  0  0  0  0  0  0  0  0  0  0
    5.5346    0.5850   -0.2999 C   0  0  0  0  0  0  0  0  0  0  0  0
    4.1456    0.7457   -0.1425 C   0  0  0  0  0  0  0  0  0  0  0  0
    3.2714   -0.3483   -0.2388 C   0  0  0  0  0  0  0  0  0  0  0  0
    3.8012   -1.6191   -0.4980 C   0  0  0  0  0  0  0  0  0  0  0  0
    5.1740   -1.7938   -0.6690 C   0  0  0  0  0  0  0  0  0  0  0  0
    6.0603   -0.7051   -0.5868 C   0  0  0  0  0  0  0  0  0  0  0  0
    7.5086   -0.9657   -0.8053 C   0  0  0  0  0  0  0  0  0  0  0  0
    8.3005   -0.0401   -1.1224 O   0  0  0  0  0  0  0  0  0  0  0  0
    8.0078   -2.2587   -0.6942 O   0  0  0  0  0  1  0  0  0  0  0  0
  1  2  1  0
  2  3  4  0
  3  4  4  0
  4  5  1  0
  5  6  2  0
  5  7  1  0
  4  8  4  0
  8  9  1  0
  8 10  4  0
 10 11  1  0
 10 12  4  0
 12  2  4  0
 13 14  1  0
 14 15  4  0
 15 16  4  0
 16 17  4  0
 17 18  4  0
 18 19  4  0
 19 20  1  0
 20 21  2  0
 20 22  1  0
 19 14  4  0
M  CHG  2   7  -1  22  -1
M  END
$$$$

     RDKit          3D

 22 22  0  0  0  0  0  0  0  0999 V2000
   -2.2987   -1.3531   -2.5602 C   0  0  0  0  0  0  0  0  0  0  0  0
   -3.1080   -0.6316   -1.5105 C   0  0  0  0  0  0  0  0  0  0  0  0
   -4.5026   -0.7012   -1.5589 C   0  0  0  0  0  0  0  0  0  0  0  0
   -5.2996   -0.0311   -0.6231 C   0  0  0  0  0  0  0  0  0  0  0  0
   -6.7695   -0.2186   -0.7114 C   0  0  0  0  0  0  0  0  0  0  0  0
   -7.4847   -0.2202    0.3252 O   0  0  0  0  0  0  0  0  0  0  0  0
   -7.3698   -0.4552   -1.9429 O   0  0  0  0  0  1  0  0  0  0  0  0
   -4.6835    0.7786    0.3678 C   0  0  0  0  0  0  0  0  0  0  0  0
   -5.5300    1.6424    1.2818 C   0  0  0  0  0  0  0  0  0  0  0  0
   -3.2658    0.7731    0.4923 C   0  0  0  0  0  0  0  0  0  0  0  0
   -2.5943    1.5463    1.6117 C   0  0  0  0  0  0  0  0  0  0  0  0
   -2.4813    0.0856   -0.4700 C   0  0  0  0  0  0  0  0  0  0  0  0
    6.2536   -2.0429   -0.5690 C   0  0  0  0  0  0  0  0  0  0  0  0
    5.4819   -0.7609   -0.3856 C   0  0  0  0  0  0  0  0  0  0  0  0
    4.0764   -0.8184   -0.4177 C   0  0  0  0  0  0  0  0  0  0  0  0
    3.2979    0.3423   -0.2881 C   0  0  0  0  0  0  0  0  0  0  0  0
    3.9416    1.5759   -0.1239 C   0  0  0  0  0  0  0  0  0  0  0  0
    5.3333    1.6491   -0.0775 C   0  0  0  0  0  0  0  0  0  0  0  0
    6.1254    0.4929   -0.1935 C   0  0  0  0  0  0  0  0  0  0  0  0
    7.6026    0.6473   -0.1093 C   0  0  0  0  0  0  0  0  0  0  0  0
    8.3482   -0.3265    0.1739 O   0  0  0  0  0  0  0  0  0  0  0  0
    8.1850    1.8937   -0.3115 O   0  0  0  0  0  1  0  0  0  0  0  0
  1  2  1  0
  2  3  4  0
  3  4  4  0
  4  5  1  0
  5  6  2  0
  5  7  1  0
  4  8  4  0
  8  9  1  0
  8 10  4  0
 10 11  1  0
 10 12  4  0
 12  2  4  0
 13 14  1  0
 14 15  4  0
 15 16  4  0
 16 17  4  0
 17 18  4  0
 18 19  4  0
 19 20  1  0
 20 21  2  0
 20 22  1  0
 19 14  4  0
M  CHG  2   7  -1  22  -1
M  END
$$$$

     RDKit          3D

 22 22  0  0  0  0  0  0  0  0999 V2000
    2.2203   -2.2056    1.5343 C   0  0  0  0  0  0  0  0  0  0  0  0
    3.0537   -1.1112    0.9147 C   0  0  0  0  0  0  0  0  0  0  0  0
    4.4376   -1.1180    1.1079 C   0  0  0  0  0  0  0  0  0  0  0  0
    5.2576   -0.1296    0.5484 C   0  0  0  0  0  0  0  0  0  0  0  0
    6.7096   -0.1771    0.8533 C   0  0  0  0  0  0  0  0  0  0  0  0
    7.2840   -1.2841    1.0321 O   0  0  0  0  0  0  0  0  0  0  0  0
    7.4447    0.9931    1.0025 O   0  0  0  0  0  1  0  0  0  0  0  0
    4.6790    0.8829   -0.2605 C   0  0  0  0  0  0  0  0  0  0  0  0
    5.5630    1.8675   -0.9993 C   0  0  0  0  0  0  0  0  0  0  0  0
    3.2630    0.9637   -0.3730 C   0  0  0  0  0  0  0  0  0  0  0  0
    2.6212    2.1157   -1.1230 C   0  0  0  0  0  0  0  0  0  0  0  0
    2.4567   -0.0627    0.1841 C   0  0  0  0  0  0  0  0  0  0  0  0
   -6.3761   -0.4840    1.7214 C   0  0  0  0  0  0  0  0  0  0  0  0
   -5.5360   -0.1943    0.5043 C   0  0  0  0  0  0  0  0  0  0  0  0
   -4.1358   -0.2372    0.6346 C   0  0  0  0  0  0  0  0  0  0  0  0
   -3.2953    0.0546   -0.4512 C   0  0  0  0  0  0  0  0  0  0  0  0
   -3.8711    0.3908   -1.6836 C   0  0  0  0  0  0  0  0  0  0  0  0
   -5.2571    0.4244   -1.8330 C   0  0  0  0  0  0  0  0  0  0  0  0
   -6.1105    0.1211   -0.7565 C   0  0  0  0  0  0  0  0  0  0  0  0
   -7.5784    0.1445   -0.9922 C   0  0  0  0  0  0  0  0  0  0  0  0
   -8.0549    0.8205   -1.9428 O   0  0  0  0  0  0  0  0  0  0  0  0
   -8.4479   -0.6011   -0.2059 O   0  0  0  0  0  1  0  0  0  0  0  0
  1  2  1  0
  2  3  4  0
  3  4  4  0
  4  5  1  0
  5  6  2  0
  5  7  1  0
  4  8  4  0
  8  9  1  0
  8 10  4  0
 10 11  1  0
 10 12  4  0
 12  2  4  0
 13 14  1  0
 14 15  4  0
 15 16  4  0
 16 17  4  0
 17 18  4  0
 18 19  4  0
 19 20  1  0
 20 21  2  0
 20 22  1  0
 19 14  4  0
M  CHG  2   7  -1  22  -1
M  END
$$$$
